******
** ngspice-36 : Circuit level simulation program
** The U. C. Berkeley CAD Group
** Copyright 1985-1994, Regents of the University of California.
** Copyright 2001-2020, The ngspice team.
** Please get your ngspice manual from http://ngspice.sourceforge.net/docs.html
** Please file your bug-reports at http://ngspice.sourceforge.net/bugrep.html
** Creation Date: Sat Jan  1 18:54:42 UTC 2022
******

No compatibility mode selected!


Circuit: *INCLUDE 45nm_HP.pm

Doing analysis at TEMP = 25.000000 and TNOM = 27.000000


No. of Data Rows : 1
abs(v(alim)) = 0.000000e+00
v(drain) = 0.000000e+00
v(gate) = 0.000000e+00
v(source) = 0.000000e+00
v(body) = 0.000000e+00
i(vd) = -1.47243e-46
i(vg) = -9.79052e-47
i(vs) = -1.47102e-46
i(vb) = 3.922498e-46
Doing analysis at TEMP = 25.000000 and TNOM = 27.000000


No. of Data Rows : 1
abs(v(alim)) = 0.000000e+00
v(drain) = 5.000000e-02
v(gate) = 0.000000e+00
v(source) = 0.000000e+00
v(body) = 0.000000e+00
i(vd) = -4.14417e-11
i(vg) = 1.309897e-14
i(vs) = 4.142860e-11
i(vb) = 6.911974e-18
Doing analysis at TEMP = 25.000000 and TNOM = 27.000000


No. of Data Rows : 1
abs(v(alim)) = 0.000000e+00
v(drain) = 1.000000e-01
v(gate) = 0.000000e+00
v(source) = 0.000000e+00
v(body) = 0.000000e+00
i(vd) = -5.49278e-11
i(vg) = 3.633735e-14
i(vs) = 5.489149e-11
i(vb) = 7.917857e-18
Doing analysis at TEMP = 25.000000 and TNOM = 27.000000


No. of Data Rows : 1
abs(v(alim)) = 0.000000e+00
v(drain) = 1.500000e-01
v(gate) = 0.000000e+00
v(source) = 0.000000e+00
v(body) = 0.000000e+00
i(vd) = -6.73822e-11
i(vg) = 7.283804e-14
i(vs) = 6.730931e-11
i(vb) = 8.088447e-18
Doing analysis at TEMP = 25.000000 and TNOM = 27.000000


No. of Data Rows : 1
abs(v(alim)) = 0.000000e+00
v(drain) = 2.000000e-01
v(gate) = 0.000000e+00
v(source) = 0.000000e+00
v(body) = 0.000000e+00
i(vd) = -8.17655e-11
i(vg) = 1.264367e-13
i(vs) = 8.163903e-11
i(vb) = 8.149856e-18
Doing analysis at TEMP = 25.000000 and TNOM = 27.000000


No. of Data Rows : 1
abs(v(alim)) = 0.000000e+00
v(drain) = 2.500000e-01
v(gate) = 0.000000e+00
v(source) = 0.000000e+00
v(body) = 0.000000e+00
i(vd) = -9.88890e-11
i(vg) = 2.018227e-13
i(vs) = 9.868716e-11
i(vb) = 8.208680e-18
Doing analysis at TEMP = 25.000000 and TNOM = 27.000000


No. of Data Rows : 1
abs(v(alim)) = 0.000000e+00
v(drain) = 3.000000e-01
v(gate) = 0.000000e+00
v(source) = 0.000000e+00
v(body) = 0.000000e+00
i(vd) = -1.19418e-10
i(vg) = 3.047051e-13
i(vs) = 1.191133e-10
i(vb) = 8.283840e-18
Doing analysis at TEMP = 25.000000 and TNOM = 27.000000


No. of Data Rows : 1
abs(v(alim)) = 0.000000e+00
v(drain) = 3.500000e-01
v(gate) = 0.000000e+00
v(source) = 0.000000e+00
v(body) = 0.000000e+00
i(vd) = -1.44083e-10
i(vg) = 4.420077e-13
i(vs) = 1.436414e-10
i(vb) = 8.382725e-18
Doing analysis at TEMP = 25.000000 and TNOM = 27.000000


No. of Data Rows : 1
abs(v(alim)) = 0.000000e+00
v(drain) = 4.000000e-01
v(gate) = 0.000000e+00
v(source) = 0.000000e+00
v(body) = 0.000000e+00
i(vd) = -1.73741e-10
i(vg) = 6.220994e-13
i(vs) = 1.731189e-10
i(vb) = 8.512302e-18
Doing analysis at TEMP = 25.000000 and TNOM = 27.000000


No. of Data Rows : 1
abs(v(alim)) = 0.000000e+00
v(drain) = 4.500000e-01
v(gate) = 0.000000e+00
v(source) = 0.000000e+00
v(body) = 0.000000e+00
i(vd) = -2.09409e-10
i(vg) = 8.550632e-13
i(vs) = 2.085544e-10
i(vb) = 8.680993e-18
Doing analysis at TEMP = 25.000000 and TNOM = 27.000000


No. of Data Rows : 1
abs(v(alim)) = 0.000000e+00
v(drain) = 5.000000e-01
v(gate) = 0.000000e+00
v(source) = 0.000000e+00
v(body) = 0.000000e+00
i(vd) = -2.52307e-10
i(vg) = 1.153014e-12
i(vs) = 2.511544e-10
i(vb) = 8.899307e-18
Doing analysis at TEMP = 25.000000 and TNOM = 27.000000


No. of Data Rows : 1
abs(v(alim)) = 0.000000e+00
v(drain) = 5.500000e-01
v(gate) = 0.000000e+00
v(source) = 0.000000e+00
v(body) = 0.000000e+00
i(vd) = -3.03897e-10
i(vg) = 1.530470e-12
i(vs) = 3.023665e-10
i(vb) = 9.180379e-18
Doing analysis at TEMP = 25.000000 and TNOM = 27.000000


No. of Data Rows : 1
abs(v(alim)) = 0.000000e+00
v(drain) = 6.000000e-01
v(gate) = 0.000000e+00
v(source) = 0.000000e+00
v(body) = 0.000000e+00
i(vd) = -3.65936e-10
i(vg) = 2.004787e-12
i(vs) = 3.639316e-10
i(vb) = 9.540603e-18
Doing analysis at TEMP = 25.000000 and TNOM = 27.000000


No. of Data Rows : 1
abs(v(alim)) = 0.000000e+00
v(drain) = 6.500000e-01
v(gate) = 0.000000e+00
v(source) = 0.000000e+00
v(body) = 0.000000e+00
i(vd) = -4.40546e-10
i(vg) = 2.596670e-12
i(vs) = 4.379490e-10
i(vb) = 1.000040e-17
Doing analysis at TEMP = 25.000000 and TNOM = 27.000000


No. of Data Rows : 1
abs(v(alim)) = 0.000000e+00
v(drain) = 7.000000e-01
v(gate) = 0.000000e+00
v(source) = 0.000000e+00
v(body) = 0.000000e+00
i(vd) = -5.30289e-10
i(vg) = 3.330766e-12
i(vs) = 5.269578e-10
i(vb) = 1.058515e-17
Doing analysis at TEMP = 25.000000 and TNOM = 27.000000


No. of Data Rows : 1
abs(v(alim)) = 0.000000e+00
v(drain) = 7.500000e-01
v(gate) = 0.000000e+00
v(source) = 0.000000e+00
v(body) = 0.000000e+00
i(vd) = -6.38276e-10
i(vg) = 4.236364e-12
i(vs) = 6.340400e-10
i(vb) = 1.132638e-17
Doing analysis at TEMP = 25.000000 and TNOM = 27.000000


No. of Data Rows : 1
abs(v(alim)) = 0.000000e+00
v(drain) = 8.000000e-01
v(gate) = 0.000000e+00
v(source) = 0.000000e+00
v(body) = 0.000000e+00
i(vd) = -7.68296e-10
i(vg) = 5.348203e-12
i(vs) = 7.629481e-10
i(vb) = 1.226312e-17
Doing analysis at TEMP = 25.000000 and TNOM = 27.000000


No. of Data Rows : 1
abs(v(alim)) = 0.000000e+00
v(drain) = 8.500000e-01
v(gate) = 0.000000e+00
v(source) = 0.000000e+00
v(body) = 0.000000e+00
i(vd) = -9.24975e-10
i(vg) = 6.707421e-12
i(vs) = 9.182673e-10
i(vb) = 1.344371e-17
Doing analysis at TEMP = 25.000000 and TNOM = 27.000000


No. of Data Rows : 1
abs(v(alim)) = 0.000000e+00
v(drain) = 9.000000e-01
v(gate) = 0.000000e+00
v(source) = 0.000000e+00
v(body) = 0.000000e+00
i(vd) = -1.11398e-09
i(vg) = 8.362660e-12
i(vs) = 1.105616e-09
i(vb) = 1.492781e-17
Doing analysis at TEMP = 25.000000 and TNOM = 27.000000


No. of Data Rows : 1
abs(v(alim)) = 0.000000e+00
v(drain) = 9.500000e-01
v(gate) = 0.000000e+00
v(source) = 0.000000e+00
v(body) = 0.000000e+00
i(vd) = -1.34227e-09
i(vg) = 1.037135e-11
i(vs) = 1.331900e-09
i(vb) = 3.353732e-17
Doing analysis at TEMP = 25.000000 and TNOM = 27.000000


No. of Data Rows : 1
abs(v(alim)) = 0.000000e+00
v(drain) = 1.000000e+00
v(gate) = 0.000000e+00
v(source) = 0.000000e+00
v(body) = 0.000000e+00
i(vd) = -1.61843e-09
i(vg) = 1.280122e-11
i(vs) = 1.605624e-09
i(vb) = 1.872833e-16
Doing analysis at TEMP = 25.000000 and TNOM = 27.000000


No. of Data Rows : 1
abs(v(alim)) = 0.000000e+00
v(drain) = 1.050000e+00
v(gate) = 0.000000e+00
v(source) = 0.000000e+00
v(body) = 0.000000e+00
i(vd) = -1.95302e-09
i(vg) = 1.573200e-11
i(vs) = 1.937286e-09
i(vb) = 1.094022e-15
Doing analysis at TEMP = 25.000000 and TNOM = 27.000000


No. of Data Rows : 1
abs(v(alim)) = 0.000000e+00
v(drain) = 1.100000e+00
v(gate) = 0.000000e+00
v(source) = 0.000000e+00
v(body) = 0.000000e+00
i(vd) = -2.35913e-09
i(vg) = 1.925749e-11
i(vs) = 2.339864e-09
i(vb) = 1.115107e-14
Doing analysis at TEMP = 25.000000 and TNOM = 27.000000


No. of Data Rows : 1
abs(v(alim)) = 5.000000e-02
v(drain) = 0.000000e+00
v(gate) = 0.000000e+00
v(source) = 5.000000e-02
v(body) = 0.000000e+00
i(vd) = 4.142860e-11
i(vg) = 1.309897e-14
i(vs) = -4.14417e-11
i(vb) = 6.911974e-18
Doing analysis at TEMP = 25.000000 and TNOM = 27.000000


No. of Data Rows : 1
abs(v(alim)) = 5.000000e-02
v(drain) = 5.000000e-02
v(gate) = 0.000000e+00
v(source) = 5.000000e-02
v(body) = 0.000000e+00
i(vd) = -1.31059e-14
i(vg) = 2.619795e-14
i(vs) = -1.31059e-14
i(vb) = 1.380472e-17
Doing analysis at TEMP = 25.000000 and TNOM = 27.000000


No. of Data Rows : 1
abs(v(alim)) = 5.000000e-02
v(drain) = 1.000000e-01
v(gate) = 0.000000e+00
v(source) = 5.000000e-02
v(body) = 0.000000e+00
i(vd) = -7.41132e-12
i(vg) = 4.943633e-14
i(vs) = 7.361874e-12
i(vb) = 1.479257e-17
Doing analysis at TEMP = 25.000000 and TNOM = 27.000000


No. of Data Rows : 1
abs(v(alim)) = 5.000000e-02
v(drain) = 1.500000e-01
v(gate) = 0.000000e+00
v(source) = 5.000000e-02
v(body) = 0.000000e+00
i(vd) = -9.86467e-12
i(vg) = 8.593702e-14
i(vs) = 9.778720e-12
i(vb) = 1.493735e-17
Doing analysis at TEMP = 25.000000 and TNOM = 27.000000


No. of Data Rows : 1
abs(v(alim)) = 5.000000e-02
v(drain) = 2.000000e-01
v(gate) = 0.000000e+00
v(source) = 5.000000e-02
v(body) = 0.000000e+00
i(vd) = -1.21550e-11
i(vg) = 1.395357e-13
i(vs) = 1.201546e-11
i(vb) = 1.496320e-17
Doing analysis at TEMP = 25.000000 and TNOM = 27.000000


No. of Data Rows : 1
abs(v(alim)) = 5.000000e-02
v(drain) = 2.500000e-01
v(gate) = 0.000000e+00
v(source) = 5.000000e-02
v(body) = 0.000000e+00
i(vd) = -1.48176e-11
i(vg) = 2.149217e-13
i(vs) = 1.460263e-11
i(vb) = 1.497389e-17
Doing analysis at TEMP = 25.000000 and TNOM = 27.000000


No. of Data Rows : 1
abs(v(alim)) = 5.000000e-02
v(drain) = 3.000000e-01
v(gate) = 0.000000e+00
v(source) = 5.000000e-02
v(body) = 0.000000e+00
i(vd) = -1.80050e-11
i(vg) = 3.178040e-13
i(vs) = 1.768722e-11
i(vb) = 1.498477e-17
Doing analysis at TEMP = 25.000000 and TNOM = 27.000000


No. of Data Rows : 1
abs(v(alim)) = 5.000000e-02
v(drain) = 3.500000e-01
v(gate) = 0.000000e+00
v(source) = 5.000000e-02
v(body) = 0.000000e+00
i(vd) = -2.18460e-11
i(vg) = 4.551067e-13
i(vs) = 2.139086e-11
i(vb) = 1.499872e-17
Doing analysis at TEMP = 25.000000 and TNOM = 27.000000


No. of Data Rows : 1
abs(v(alim)) = 5.000000e-02
v(drain) = 4.000000e-01
v(gate) = 0.000000e+00
v(source) = 5.000000e-02
v(body) = 0.000000e+00
i(vd) = -2.64830e-11
i(vg) = 6.351983e-13
i(vs) = 2.584783e-11
i(vb) = 1.501701e-17
Doing analysis at TEMP = 25.000000 and TNOM = 27.000000


No. of Data Rows : 1
abs(v(alim)) = 5.000000e-02
v(drain) = 4.500000e-01
v(gate) = 0.000000e+00
v(source) = 5.000000e-02
v(body) = 0.000000e+00
i(vd) = -3.20841e-11
i(vg) = 8.681622e-13
i(vs) = 3.121592e-11
i(vb) = 1.504090e-17
Doing analysis at TEMP = 25.000000 and TNOM = 27.000000


No. of Data Rows : 1
abs(v(alim)) = 5.000000e-02
v(drain) = 5.000000e-01
v(gate) = 0.000000e+00
v(source) = 5.000000e-02
v(body) = 0.000000e+00
i(vd) = -3.88497e-11
i(vg) = 1.166113e-12
i(vs) = 3.768352e-11
i(vb) = 1.507196e-17
Doing analysis at TEMP = 25.000000 and TNOM = 27.000000


No. of Data Rows : 1
abs(v(alim)) = 5.000000e-02
v(drain) = 5.500000e-01
v(gate) = 0.000000e+00
v(source) = 5.000000e-02
v(body) = 0.000000e+00
i(vd) = -4.70204e-11
i(vg) = 1.543569e-12
i(vs) = 4.547677e-11
i(vb) = 1.511213e-17
Doing analysis at TEMP = 25.000000 and TNOM = 27.000000


No. of Data Rows : 1
abs(v(alim)) = 5.000000e-02
v(drain) = 6.000000e-01
v(gate) = 0.000000e+00
v(source) = 5.000000e-02
v(body) = 0.000000e+00
i(vd) = -5.68858e-11
i(vg) = 2.017886e-12
i(vs) = 5.486786e-11
i(vb) = 1.516387e-17
Doing analysis at TEMP = 25.000000 and TNOM = 27.000000


No. of Data Rows : 1
abs(v(alim)) = 5.000000e-02
v(drain) = 6.500000e-01
v(gate) = 0.000000e+00
v(source) = 5.000000e-02
v(body) = 0.000000e+00
i(vd) = -6.87950e-11
i(vg) = 2.609769e-12
i(vs) = 6.618525e-11
i(vb) = 1.523024e-17
Doing analysis at TEMP = 25.000000 and TNOM = 27.000000


No. of Data Rows : 1
abs(v(alim)) = 5.000000e-02
v(drain) = 7.000000e-01
v(gate) = 0.000000e+00
v(source) = 5.000000e-02
v(body) = 0.000000e+00
i(vd) = -8.31702e-11
i(vg) = 3.343865e-12
i(vs) = 7.982633e-11
i(vb) = 1.531506e-17
Doing analysis at TEMP = 25.000000 and TNOM = 27.000000


No. of Data Rows : 1
abs(v(alim)) = 5.000000e-02
v(drain) = 7.500000e-01
v(gate) = 0.000000e+00
v(source) = 5.000000e-02
v(body) = 0.000000e+00
i(vd) = -1.00523e-10
i(vg) = 4.249463e-12
i(vs) = 9.627345e-11
i(vb) = 1.542311e-17
Doing analysis at TEMP = 25.000000 and TNOM = 27.000000


No. of Data Rows : 1
abs(v(alim)) = 5.000000e-02
v(drain) = 8.000000e-01
v(gate) = 0.000000e+00
v(source) = 5.000000e-02
v(body) = 0.000000e+00
i(vd) = -1.21475e-10
i(vg) = 5.361302e-12
i(vs) = 1.161141e-10
i(vb) = 1.556035e-17
Doing analysis at TEMP = 25.000000 and TNOM = 27.000000


No. of Data Rows : 1
abs(v(alim)) = 5.000000e-02
v(drain) = 8.500000e-01
v(gate) = 0.000000e+00
v(source) = 5.000000e-02
v(body) = 0.000000e+00
i(vd) = -1.46787e-10
i(vg) = 6.720520e-12
i(vs) = 1.400662e-10
i(vb) = 1.573420e-17
Doing analysis at TEMP = 25.000000 and TNOM = 27.000000


No. of Data Rows : 1
abs(v(alim)) = 5.000000e-02
v(drain) = 9.000000e-01
v(gate) = 0.000000e+00
v(source) = 5.000000e-02
v(body) = 0.000000e+00
i(vd) = -1.77386e-10
i(vg) = 8.375759e-12
i(vs) = 1.690102e-10
i(vb) = 1.595385e-17
Doing analysis at TEMP = 25.000000 and TNOM = 27.000000


No. of Data Rows : 1
abs(v(alim)) = 5.000000e-02
v(drain) = 9.500000e-01
v(gate) = 0.000000e+00
v(source) = 5.000000e-02
v(body) = 0.000000e+00
i(vd) = -2.14414e-10
i(vg) = 1.038445e-11
i(vs) = 2.040291e-10
i(vb) = 1.623072e-17
Doing analysis at TEMP = 25.000000 and TNOM = 27.000000


No. of Data Rows : 1
abs(v(alim)) = 5.000000e-02
v(drain) = 1.000000e+00
v(gate) = 0.000000e+00
v(source) = 5.000000e-02
v(body) = 0.000000e+00
i(vd) = -2.59274e-10
i(vg) = 1.281432e-11
i(vs) = 2.464594e-10
i(vb) = 1.966748e-17
Doing analysis at TEMP = 25.000000 and TNOM = 27.000000


No. of Data Rows : 1
abs(v(alim)) = 5.000000e-02
v(drain) = 1.050000e+00
v(gate) = 0.000000e+00
v(source) = 5.000000e-02
v(body) = 0.000000e+00
i(vd) = -3.13699e-10
i(vg) = 1.574510e-11
i(vs) = 2.979537e-10
i(vb) = 7.315694e-17
Doing analysis at TEMP = 25.000000 and TNOM = 27.000000


No. of Data Rows : 1
abs(v(alim)) = 5.000000e-02
v(drain) = 1.100000e+00
v(gate) = 0.000000e+00
v(source) = 5.000000e-02
v(body) = 0.000000e+00
i(vd) = -3.79838e-10
i(vg) = 1.927059e-11
i(vs) = 3.605612e-10
i(vb) = 5.940651e-15
Doing analysis at TEMP = 25.000000 and TNOM = 27.000000


No. of Data Rows : 1
abs(v(alim)) = 1.000000e-01
v(drain) = 0.000000e+00
v(gate) = 0.000000e+00
v(source) = 1.000000e-01
v(body) = 0.000000e+00
i(vd) = 5.489149e-11
i(vg) = 3.633735e-14
i(vs) = -5.49278e-11
i(vb) = 7.917857e-18
Doing analysis at TEMP = 25.000000 and TNOM = 27.000000


No. of Data Rows : 1
abs(v(alim)) = 1.000000e-01
v(drain) = 5.000000e-02
v(gate) = 0.000000e+00
v(source) = 1.000000e-01
v(body) = 0.000000e+00
i(vd) = 7.361874e-12
i(vg) = 4.943633e-14
i(vs) = -7.41132e-12
i(vb) = 1.479257e-17
Doing analysis at TEMP = 25.000000 and TNOM = 27.000000


No. of Data Rows : 1
abs(v(alim)) = 1.000000e-01
v(drain) = 1.000000e-01
v(gate) = 0.000000e+00
v(source) = 1.000000e-01
v(body) = 0.000000e+00
i(vd) = -3.63452e-14
i(vg) = 7.267471e-14
i(vs) = -3.63452e-14
i(vb) = 1.577273e-17
Doing analysis at TEMP = 25.000000 and TNOM = 27.000000


No. of Data Rows : 1
abs(v(alim)) = 1.000000e-01
v(drain) = 1.500000e-01
v(gate) = 0.000000e+00
v(source) = 1.000000e-01
v(body) = 0.000000e+00
i(vd) = -1.36608e-12
i(vg) = 1.091754e-13
i(vs) = 1.256892e-12
i(vb) = 1.591429e-17
Doing analysis at TEMP = 25.000000 and TNOM = 27.000000


No. of Data Rows : 1
abs(v(alim)) = 1.000000e-01
v(drain) = 2.000000e-01
v(gate) = 0.000000e+00
v(source) = 1.000000e-01
v(body) = 0.000000e+00
i(vd) = -1.84654e-12
i(vg) = 1.627740e-13
i(vs) = 1.683748e-12
i(vb) = 1.593551e-17
Doing analysis at TEMP = 25.000000 and TNOM = 27.000000


No. of Data Rows : 1
abs(v(alim)) = 1.000000e-01
v(drain) = 2.500000e-01
v(gate) = 0.000000e+00
v(source) = 1.000000e-01
v(body) = 0.000000e+00
i(vd) = -2.31805e-12
i(vg) = 2.381600e-13
i(vs) = 2.079873e-12
i(vb) = 1.593980e-17
Doing analysis at TEMP = 25.000000 and TNOM = 27.000000


No. of Data Rows : 1
abs(v(alim)) = 1.000000e-01
v(drain) = 3.000000e-01
v(gate) = 0.000000e+00
v(source) = 1.000000e-01
v(body) = 0.000000e+00
i(vd) = -2.87999e-12
i(vg) = 3.410424e-13
i(vs) = 2.538929e-12
i(vb) = 1.594200e-17
Doing analysis at TEMP = 25.000000 and TNOM = 27.000000


No. of Data Rows : 1
abs(v(alim)) = 1.000000e-01
v(drain) = 3.500000e-01
v(gate) = 0.000000e+00
v(source) = 1.000000e-01
v(body) = 0.000000e+00
i(vd) = -3.56555e-12
i(vg) = 4.783451e-13
i(vs) = 3.087190e-12
i(vb) = 1.594433e-17
Doing analysis at TEMP = 25.000000 and TNOM = 27.000000


No. of Data Rows : 1
abs(v(alim)) = 1.000000e-01
v(drain) = 4.000000e-01
v(gate) = 0.000000e+00
v(source) = 1.000000e-01
v(body) = 0.000000e+00
i(vd) = -4.40505e-12
i(vg) = 6.584367e-13
i(vs) = 3.746596e-12
i(vb) = 1.594721e-17
Doing analysis at TEMP = 25.000000 and TNOM = 27.000000


No. of Data Rows : 1
abs(v(alim)) = 1.000000e-01
v(drain) = 4.500000e-01
v(gate) = 0.000000e+00
v(source) = 1.000000e-01
v(body) = 0.000000e+00
i(vd) = -5.43289e-12
i(vg) = 8.914005e-13
i(vs) = 4.541471e-12
i(vb) = 1.595087e-17
Doing analysis at TEMP = 25.000000 and TNOM = 27.000000


No. of Data Rows : 1
abs(v(alim)) = 1.000000e-01
v(drain) = 5.000000e-01
v(gate) = 0.000000e+00
v(source) = 1.000000e-01
v(body) = 0.000000e+00
i(vd) = -6.68984e-12
i(vg) = 1.189351e-12
i(vs) = 5.500474e-12
i(vb) = 1.595553e-17
Doing analysis at TEMP = 25.000000 and TNOM = 27.000000


No. of Data Rows : 1
abs(v(alim)) = 1.000000e-01
v(drain) = 5.500000e-01
v(gate) = 0.000000e+00
v(source) = 1.000000e-01
v(body) = 0.000000e+00
i(vd) = -8.22473e-12
i(vg) = 1.566807e-12
i(vs) = 6.657903e-12
i(vb) = 1.596148e-17
Doing analysis at TEMP = 25.000000 and TNOM = 27.000000


No. of Data Rows : 1
abs(v(alim)) = 1.000000e-01
v(drain) = 6.000000e-01
v(gate) = 0.000000e+00
v(source) = 1.000000e-01
v(body) = 0.000000e+00
i(vd) = -1.00962e-11
i(vg) = 2.041124e-12
i(vs) = 8.055023e-12
i(vb) = 1.596907e-17
Doing analysis at TEMP = 25.000000 and TNOM = 27.000000


No. of Data Rows : 1
abs(v(alim)) = 1.000000e-01
v(drain) = 6.500000e-01
v(gate) = 0.000000e+00
v(source) = 1.000000e-01
v(body) = 0.000000e+00
i(vd) = -1.23746e-11
i(vg) = 2.633007e-12
i(vs) = 9.741613e-12
i(vb) = 1.597874e-17
Doing analysis at TEMP = 25.000000 and TNOM = 27.000000


No. of Data Rows : 1
abs(v(alim)) = 1.000000e-01
v(drain) = 7.000000e-01
v(gate) = 0.000000e+00
v(source) = 1.000000e-01
v(body) = 0.000000e+00
i(vd) = -1.51450e-11
i(vg) = 3.367104e-12
i(vs) = 1.177787e-11
i(vb) = 1.599105e-17
Doing analysis at TEMP = 25.000000 and TNOM = 27.000000


No. of Data Rows : 1
abs(v(alim)) = 1.000000e-01
v(drain) = 7.500000e-01
v(gate) = 0.000000e+00
v(source) = 1.000000e-01
v(body) = 0.000000e+00
i(vd) = -1.85095e-11
i(vg) = 4.272702e-12
i(vs) = 1.423680e-11
i(vb) = 1.600671e-17
Doing analysis at TEMP = 25.000000 and TNOM = 27.000000


No. of Data Rows : 1
abs(v(alim)) = 1.000000e-01
v(drain) = 8.000000e-01
v(gate) = 0.000000e+00
v(source) = 1.000000e-01
v(body) = 0.000000e+00
i(vd) = -2.25918e-11
i(vg) = 5.384540e-12
i(vs) = 1.720721e-11
i(vb) = 1.602658e-17
Doing analysis at TEMP = 25.000000 and TNOM = 27.000000


No. of Data Rows : 1
abs(v(alim)) = 1.000000e-01
v(drain) = 8.500000e-01
v(gate) = 0.000000e+00
v(source) = 1.000000e-01
v(body) = 0.000000e+00
i(vd) = -2.75413e-11
i(vg) = 6.743758e-12
i(vs) = 2.079748e-11
i(vb) = 1.605176e-17
Doing analysis at TEMP = 25.000000 and TNOM = 27.000000


No. of Data Rows : 1
abs(v(alim)) = 1.000000e-01
v(drain) = 9.000000e-01
v(gate) = 0.000000e+00
v(source) = 1.000000e-01
v(body) = 0.000000e+00
i(vd) = -3.35394e-11
i(vg) = 8.398998e-12
i(vs) = 2.514040e-11
i(vb) = 1.608360e-17
Doing analysis at TEMP = 25.000000 and TNOM = 27.000000


No. of Data Rows : 1
abs(v(alim)) = 1.000000e-01
v(drain) = 9.500000e-01
v(gate) = 0.000000e+00
v(source) = 1.000000e-01
v(body) = 0.000000e+00
i(vd) = -4.08069e-11
i(vg) = 1.040769e-11
i(vs) = 3.039917e-11
i(vb) = 1.612382e-17
Doing analysis at TEMP = 25.000000 and TNOM = 27.000000


No. of Data Rows : 1
abs(v(alim)) = 1.000000e-01
v(drain) = 1.000000e+00
v(gate) = 0.000000e+00
v(source) = 1.000000e-01
v(body) = 0.000000e+00
i(vd) = -4.96126e-11
i(vg) = 1.283755e-11
i(vs) = 3.677502e-11
i(vb) = 1.618213e-17
Doing analysis at TEMP = 25.000000 and TNOM = 27.000000


No. of Data Rows : 1
abs(v(alim)) = 1.000000e-01
v(drain) = 1.050000e+00
v(gate) = 0.000000e+00
v(source) = 1.000000e-01
v(body) = 0.000000e+00
i(vd) = -6.02852e-11
i(vg) = 1.576834e-11
i(vs) = 4.451685e-11
i(vb) = 4.184330e-17
Doing analysis at TEMP = 25.000000 and TNOM = 27.000000


No. of Data Rows : 1
abs(v(alim)) = 1.000000e-01
v(drain) = 1.100000e+00
v(gate) = 0.000000e+00
v(source) = 1.000000e-01
v(body) = 0.000000e+00
i(vd) = -7.32329e-11
i(vg) = 1.929383e-11
i(vs) = 5.393331e-11
i(vb) = 5.750774e-15
Doing analysis at TEMP = 25.000000 and TNOM = 27.000000


No. of Data Rows : 1
abs(v(alim)) = 1.500000e-01
v(drain) = 0.000000e+00
v(gate) = 0.000000e+00
v(source) = 1.500000e-01
v(body) = 0.000000e+00
i(vd) = 6.730931e-11
i(vg) = 7.283804e-14
i(vs) = -6.73822e-11
i(vb) = 8.088447e-18
Doing analysis at TEMP = 25.000000 and TNOM = 27.000000


No. of Data Rows : 1
abs(v(alim)) = 1.500000e-01
v(drain) = 5.000000e-02
v(gate) = 0.000000e+00
v(source) = 1.500000e-01
v(body) = 0.000000e+00
i(vd) = 9.778720e-12
i(vg) = 8.593702e-14
i(vs) = -9.86467e-12
i(vb) = 1.493735e-17
Doing analysis at TEMP = 25.000000 and TNOM = 27.000000


No. of Data Rows : 1
abs(v(alim)) = 1.500000e-01
v(drain) = 1.000000e-01
v(gate) = 0.000000e+00
v(source) = 1.500000e-01
v(body) = 0.000000e+00
i(vd) = 1.256892e-12
i(vg) = 1.091754e-13
i(vs) = -1.36608e-12
i(vb) = 1.591429e-17
Doing analysis at TEMP = 25.000000 and TNOM = 27.000000


No. of Data Rows : 1
abs(v(alim)) = 1.500000e-01
v(drain) = 1.500000e-01
v(gate) = 0.000000e+00
v(source) = 1.500000e-01
v(body) = 0.000000e+00
i(vd) = -7.28461e-14
i(vg) = 1.456761e-13
i(vs) = -7.28461e-14
i(vb) = 1.605061e-17
Doing analysis at TEMP = 25.000000 and TNOM = 27.000000


No. of Data Rows : 1
abs(v(alim)) = 1.500000e-01
v(drain) = 2.000000e-01
v(gate) = 0.000000e+00
v(source) = 1.500000e-01
v(body) = 0.000000e+00
i(vd) = -3.50380e-13
i(vg) = 1.992747e-13
i(vs) = 1.510892e-13
i(vb) = 1.607127e-17
Doing analysis at TEMP = 25.000000 and TNOM = 27.000000


No. of Data Rows : 1
abs(v(alim)) = 1.500000e-01
v(drain) = 2.500000e-01
v(gate) = 0.000000e+00
v(source) = 1.500000e-01
v(body) = 0.000000e+00
i(vd) = -5.00153e-13
i(vg) = 2.746607e-13
i(vs) = 2.254765e-13
i(vb) = 1.607474e-17
Doing analysis at TEMP = 25.000000 and TNOM = 27.000000


No. of Data Rows : 1
abs(v(alim)) = 1.500000e-01
v(drain) = 3.000000e-01
v(gate) = 0.000000e+00
v(source) = 1.500000e-01
v(body) = 0.000000e+00
i(vd) = -6.72232e-13
i(vg) = 3.775431e-13
i(vs) = 2.946725e-13
i(vb) = 1.607581e-17
Doing analysis at TEMP = 25.000000 and TNOM = 27.000000


No. of Data Rows : 1
abs(v(alim)) = 1.500000e-01
v(drain) = 3.500000e-01
v(gate) = 0.000000e+00
v(source) = 1.500000e-01
v(body) = 0.000000e+00
i(vd) = -8.89856e-13
i(vg) = 5.148458e-13
i(vs) = 3.749939e-13
i(vb) = 1.607660e-17
Doing analysis at TEMP = 25.000000 and TNOM = 27.000000


No. of Data Rows : 1
abs(v(alim)) = 1.500000e-01
v(drain) = 4.000000e-01
v(gate) = 0.000000e+00
v(source) = 1.500000e-01
v(body) = 0.000000e+00
i(vd) = -1.16602e-12
i(vg) = 6.949374e-13
i(vs) = 4.710670e-13
i(vb) = 1.607741e-17
Doing analysis at TEMP = 25.000000 and TNOM = 27.000000


No. of Data Rows : 1
abs(v(alim)) = 1.500000e-01
v(drain) = 4.500000e-01
v(gate) = 0.000000e+00
v(source) = 1.500000e-01
v(body) = 0.000000e+00
i(vd) = -1.51470e-12
i(vg) = 9.279012e-13
i(vs) = 5.867837e-13
i(vb) = 1.607833e-17
Doing analysis at TEMP = 25.000000 and TNOM = 27.000000


No. of Data Rows : 1
abs(v(alim)) = 1.500000e-01
v(drain) = 5.000000e-01
v(gate) = 0.000000e+00
v(source) = 1.500000e-01
v(body) = 0.000000e+00
i(vd) = -1.95234e-12
i(vg) = 1.225852e-12
i(vs) = 7.264743e-13
i(vb) = 1.607938e-17
Doing analysis at TEMP = 25.000000 and TNOM = 27.000000


No. of Data Rows : 1
abs(v(alim)) = 1.500000e-01
v(drain) = 5.500000e-01
v(gate) = 0.000000e+00
v(source) = 1.500000e-01
v(body) = 0.000000e+00
i(vd) = -2.49858e-12
i(vg) = 1.603308e-12
i(vs) = 8.952519e-13
i(vb) = 1.608061e-17
Doing analysis at TEMP = 25.000000 and TNOM = 27.000000


No. of Data Rows : 1
abs(v(alim)) = 1.500000e-01
v(drain) = 6.000000e-01
v(gate) = 0.000000e+00
v(source) = 1.500000e-01
v(body) = 0.000000e+00
i(vd) = -3.17689e-12
i(vg) = 2.077625e-12
i(vs) = 1.099247e-12
i(vb) = 1.608207e-17
Doing analysis at TEMP = 25.000000 and TNOM = 27.000000


No. of Data Rows : 1
abs(v(alim)) = 1.500000e-01
v(drain) = 6.500000e-01
v(gate) = 0.000000e+00
v(source) = 1.500000e-01
v(body) = 0.000000e+00
i(vd) = -4.01537e-12
i(vg) = 2.669508e-12
i(vs) = 1.345848e-12
i(vb) = 1.608382e-17
Doing analysis at TEMP = 25.000000 and TNOM = 27.000000


No. of Data Rows : 1
abs(v(alim)) = 1.500000e-01
v(drain) = 7.000000e-01
v(gate) = 0.000000e+00
v(source) = 1.500000e-01
v(body) = 0.000000e+00
i(vd) = -5.04760e-12
i(vg) = 3.403604e-12
i(vs) = 1.643983e-12
i(vb) = 1.608593e-17
Doing analysis at TEMP = 25.000000 and TNOM = 27.000000


No. of Data Rows : 1
abs(v(alim)) = 1.500000e-01
v(drain) = 7.500000e-01
v(gate) = 0.000000e+00
v(source) = 1.500000e-01
v(body) = 0.000000e+00
i(vd) = -6.31369e-12
i(vg) = 4.309202e-12
i(vs) = 2.004467e-12
i(vb) = 1.608852e-17
Doing analysis at TEMP = 25.000000 and TNOM = 27.000000


No. of Data Rows : 1
abs(v(alim)) = 1.500000e-01
v(drain) = 8.000000e-01
v(gate) = 0.000000e+00
v(source) = 1.500000e-01
v(body) = 0.000000e+00
i(vd) = -7.86149e-12
i(vg) = 5.421041e-12
i(vs) = 2.440435e-12
i(vb) = 1.609170e-17
Doing analysis at TEMP = 25.000000 and TNOM = 27.000000


No. of Data Rows : 1
abs(v(alim)) = 1.500000e-01
v(drain) = 8.500000e-01
v(gate) = 0.000000e+00
v(source) = 1.500000e-01
v(body) = 0.000000e+00
i(vd) = -9.74817e-12
i(vg) = 6.780259e-12
i(vs) = 2.967895e-12
i(vb) = 1.609563e-17
Doing analysis at TEMP = 25.000000 and TNOM = 27.000000


No. of Data Rows : 1
abs(v(alim)) = 1.500000e-01
v(drain) = 9.000000e-01
v(gate) = 0.000000e+00
v(source) = 1.500000e-01
v(body) = 0.000000e+00
i(vd) = -1.20419e-11
i(vg) = 8.435498e-12
i(vs) = 3.606413e-12
i(vb) = 1.610051e-17
Doing analysis at TEMP = 25.000000 and TNOM = 27.000000


No. of Data Rows : 1
abs(v(alim)) = 1.500000e-01
v(drain) = 9.500000e-01
v(gate) = 0.000000e+00
v(source) = 1.500000e-01
v(body) = 0.000000e+00
i(vd) = -1.48242e-11
i(vg) = 1.044419e-11
i(vs) = 4.380000e-12
i(vb) = 1.610658e-17
Doing analysis at TEMP = 25.000000 and TNOM = 27.000000


No. of Data Rows : 1
abs(v(alim)) = 1.500000e-01
v(drain) = 1.000000e+00
v(gate) = 0.000000e+00
v(source) = 1.500000e-01
v(body) = 0.000000e+00
i(vd) = -1.81923e-11
i(vg) = 1.287406e-11
i(vs) = 5.318212e-12
i(vb) = 1.612177e-17
Doing analysis at TEMP = 25.000000 and TNOM = 27.000000


No. of Data Rows : 1
abs(v(alim)) = 1.500000e-01
v(drain) = 1.050000e+00
v(gate) = 0.000000e+00
v(source) = 1.500000e-01
v(body) = 0.000000e+00
i(vd) = -2.22624e-11
i(vg) = 1.580484e-11
i(vs) = 6.457557e-12
i(vb) = 4.117489e-17
Doing analysis at TEMP = 25.000000 and TNOM = 27.000000


No. of Data Rows : 1
abs(v(alim)) = 1.500000e-01
v(drain) = 1.100000e+00
v(gate) = 0.000000e+00
v(source) = 1.500000e-01
v(body) = 0.000000e+00
i(vd) = -2.71793e-11
i(vg) = 1.933033e-11
i(vs) = 7.843260e-12
i(vb) = 5.745078e-15
Doing analysis at TEMP = 25.000000 and TNOM = 27.000000


No. of Data Rows : 1
abs(v(alim)) = 2.000000e-01
v(drain) = 0.000000e+00
v(gate) = 0.000000e+00
v(source) = 2.000000e-01
v(body) = 0.000000e+00
i(vd) = 8.163903e-11
i(vg) = 1.264367e-13
i(vs) = -8.17655e-11
i(vb) = 8.149856e-18
Doing analysis at TEMP = 25.000000 and TNOM = 27.000000


No. of Data Rows : 1
abs(v(alim)) = 2.000000e-01
v(drain) = 5.000000e-02
v(gate) = 0.000000e+00
v(source) = 2.000000e-01
v(body) = 0.000000e+00
i(vd) = 1.201546e-11
i(vg) = 1.395357e-13
i(vs) = -1.21550e-11
i(vb) = 1.496320e-17
Doing analysis at TEMP = 25.000000 and TNOM = 27.000000


No. of Data Rows : 1
abs(v(alim)) = 2.000000e-01
v(drain) = 1.000000e-01
v(gate) = 0.000000e+00
v(source) = 2.000000e-01
v(body) = 0.000000e+00
i(vd) = 1.683748e-12
i(vg) = 1.627740e-13
i(vs) = -1.84654e-12
i(vb) = 1.593551e-17
Doing analysis at TEMP = 25.000000 and TNOM = 27.000000


No. of Data Rows : 1
abs(v(alim)) = 2.000000e-01
v(drain) = 1.500000e-01
v(gate) = 0.000000e+00
v(source) = 2.000000e-01
v(body) = 0.000000e+00
i(vd) = 1.510892e-13
i(vg) = 1.992747e-13
i(vs) = -3.50380e-13
i(vb) = 1.607127e-17
Doing analysis at TEMP = 25.000000 and TNOM = 27.000000


No. of Data Rows : 1
abs(v(alim)) = 2.000000e-01
v(drain) = 2.000000e-01
v(gate) = 0.000000e+00
v(source) = 2.000000e-01
v(body) = 0.000000e+00
i(vd) = -1.26445e-13
i(vg) = 2.528734e-13
i(vs) = -1.26445e-13
i(vb) = 1.608747e-17
Doing analysis at TEMP = 25.000000 and TNOM = 27.000000


No. of Data Rows : 1
abs(v(alim)) = 2.000000e-01
v(drain) = 2.500000e-01
v(gate) = 0.000000e+00
v(source) = 2.000000e-01
v(body) = 0.000000e+00
i(vd) = -2.40185e-13
i(vg) = 3.282594e-13
i(vs) = -8.80904e-14
i(vb) = 1.609085e-17
Doing analysis at TEMP = 25.000000 and TNOM = 27.000000


No. of Data Rows : 1
abs(v(alim)) = 2.000000e-01
v(drain) = 3.000000e-01
v(gate) = 0.000000e+00
v(source) = 2.000000e-01
v(body) = 0.000000e+00
i(vd) = -3.55883e-13
i(vg) = 4.311418e-13
i(vs) = -7.52753e-14
i(vb) = 1.609178e-17
Doing analysis at TEMP = 25.000000 and TNOM = 27.000000


No. of Data Rows : 1
abs(v(alim)) = 2.000000e-01
v(drain) = 3.500000e-01
v(gate) = 0.000000e+00
v(source) = 2.000000e-01
v(body) = 0.000000e+00
i(vd) = -5.05132e-13
i(vg) = 5.684444e-13
i(vs) = -6.33288e-14
i(vb) = 1.609236e-17
Doing analysis at TEMP = 25.000000 and TNOM = 27.000000


No. of Data Rows : 1
abs(v(alim)) = 2.000000e-01
v(drain) = 4.000000e-01
v(gate) = 0.000000e+00
v(source) = 2.000000e-01
v(body) = 0.000000e+00
i(vd) = -6.99111e-13
i(vg) = 7.485361e-13
i(vs) = -4.94408e-14
i(vb) = 1.609291e-17
Doing analysis at TEMP = 25.000000 and TNOM = 27.000000


No. of Data Rows : 1
abs(v(alim)) = 2.000000e-01
v(drain) = 4.500000e-01
v(gate) = 0.000000e+00
v(source) = 2.000000e-01
v(body) = 0.000000e+00
i(vd) = -9.48709e-13
i(vg) = 9.814999e-13
i(vs) = -3.28068e-14
i(vb) = 1.609346e-17
Doing analysis at TEMP = 25.000000 and TNOM = 27.000000


No. of Data Rows : 1
abs(v(alim)) = 2.000000e-01
v(drain) = 5.000000e-01
v(gate) = 0.000000e+00
v(source) = 2.000000e-01
v(body) = 0.000000e+00
i(vd) = -1.26672e-12
i(vg) = 1.279451e-12
i(vs) = -1.27456e-14
i(vb) = 1.609404e-17
Doing analysis at TEMP = 25.000000 and TNOM = 27.000000


No. of Data Rows : 1
abs(v(alim)) = 2.000000e-01
v(drain) = 5.500000e-01
v(gate) = 0.000000e+00
v(source) = 2.000000e-01
v(body) = 0.000000e+00
i(vd) = -1.66843e-12
i(vg) = 1.656906e-12
i(vs) = 1.150310e-14
i(vb) = 1.609463e-17
Doing analysis at TEMP = 25.000000 and TNOM = 27.000000


No. of Data Rows : 1
abs(v(alim)) = 2.000000e-01
v(drain) = 6.000000e-01
v(gate) = 0.000000e+00
v(source) = 2.000000e-01
v(body) = 0.000000e+00
i(vd) = -2.17208e-12
i(vg) = 2.131224e-12
i(vs) = 4.083866e-14
i(vb) = 1.609526e-17
Doing analysis at TEMP = 25.000000 and TNOM = 27.000000


No. of Data Rows : 1
abs(v(alim)) = 2.000000e-01
v(drain) = 6.500000e-01
v(gate) = 0.000000e+00
v(source) = 2.000000e-01
v(body) = 0.000000e+00
i(vd) = -2.79946e-12
i(vg) = 2.723106e-12
i(vs) = 7.634115e-14
i(vb) = 1.609592e-17
Doing analysis at TEMP = 25.000000 and TNOM = 27.000000


No. of Data Rows : 1
abs(v(alim)) = 2.000000e-01
v(drain) = 7.000000e-01
v(gate) = 0.000000e+00
v(source) = 2.000000e-01
v(body) = 0.000000e+00
i(vd) = -3.57653e-12
i(vg) = 3.457203e-12
i(vs) = 1.193141e-13
i(vb) = 1.609664e-17
Doing analysis at TEMP = 25.000000 and TNOM = 27.000000


No. of Data Rows : 1
abs(v(alim)) = 2.000000e-01
v(drain) = 7.500000e-01
v(gate) = 0.000000e+00
v(source) = 2.000000e-01
v(body) = 0.000000e+00
i(vd) = -4.53415e-12
i(vg) = 4.362801e-12
i(vs) = 1.713351e-13
i(vb) = 1.609742e-17
Doing analysis at TEMP = 25.000000 and TNOM = 27.000000


No. of Data Rows : 1
abs(v(alim)) = 2.000000e-01
v(drain) = 8.000000e-01
v(gate) = 0.000000e+00
v(source) = 2.000000e-01
v(body) = 0.000000e+00
i(vd) = -5.70897e-12
i(vg) = 5.474639e-12
i(vs) = 2.343174e-13
i(vb) = 1.609829e-17
Doing analysis at TEMP = 25.000000 and TNOM = 27.000000


No. of Data Rows : 1
abs(v(alim)) = 2.000000e-01
v(drain) = 8.500000e-01
v(gate) = 0.000000e+00
v(source) = 2.000000e-01
v(body) = 0.000000e+00
i(vd) = -7.14446e-12
i(vg) = 6.833857e-12
i(vs) = 3.105883e-13
i(vb) = 1.609925e-17
Doing analysis at TEMP = 25.000000 and TNOM = 27.000000


No. of Data Rows : 1
abs(v(alim)) = 2.000000e-01
v(drain) = 9.000000e-01
v(gate) = 0.000000e+00
v(source) = 2.000000e-01
v(body) = 0.000000e+00
i(vd) = -8.89210e-12
i(vg) = 8.489097e-12
i(vs) = 4.029872e-13
i(vb) = 1.610035e-17
Doing analysis at TEMP = 25.000000 and TNOM = 27.000000


No. of Data Rows : 1
abs(v(alim)) = 2.000000e-01
v(drain) = 9.500000e-01
v(gate) = 0.000000e+00
v(source) = 2.000000e-01
v(body) = 0.000000e+00
i(vd) = -1.10128e-11
i(vg) = 1.049779e-11
i(vs) = 5.149899e-13
i(vb) = 1.610162e-17
Doing analysis at TEMP = 25.000000 and TNOM = 27.000000


No. of Data Rows : 1
abs(v(alim)) = 2.000000e-01
v(drain) = 1.000000e+00
v(gate) = 0.000000e+00
v(source) = 2.000000e-01
v(body) = 0.000000e+00
i(vd) = -1.35785e-11
i(vg) = 1.292765e-11
i(vs) = 6.508666e-13
i(vb) = 1.611072e-17
Doing analysis at TEMP = 25.000000 and TNOM = 27.000000


No. of Data Rows : 1
abs(v(alim)) = 2.000000e-01
v(drain) = 1.050000e+00
v(gate) = 0.000000e+00
v(source) = 2.000000e-01
v(body) = 0.000000e+00
i(vd) = -1.66744e-11
i(vg) = 1.585843e-11
i(vs) = 8.158807e-13
i(vb) = 4.115613e-17
Doing analysis at TEMP = 25.000000 and TNOM = 27.000000


No. of Data Rows : 1
abs(v(alim)) = 2.000000e-01
v(drain) = 1.100000e+00
v(gate) = 0.000000e+00
v(source) = 2.000000e-01
v(body) = 0.000000e+00
i(vd) = -2.04062e-11
i(vg) = 1.938393e-11
i(vs) = 1.016542e-12
i(vb) = 5.744952e-15
Doing analysis at TEMP = 25.000000 and TNOM = 27.000000


No. of Data Rows : 1
abs(v(alim)) = 2.500000e-01
v(drain) = 0.000000e+00
v(gate) = 0.000000e+00
v(source) = 2.500000e-01
v(body) = 0.000000e+00
i(vd) = 9.868716e-11
i(vg) = 2.018227e-13
i(vs) = -9.88890e-11
i(vb) = 8.208680e-18
Doing analysis at TEMP = 25.000000 and TNOM = 27.000000


No. of Data Rows : 1
abs(v(alim)) = 2.500000e-01
v(drain) = 5.000000e-02
v(gate) = 0.000000e+00
v(source) = 2.500000e-01
v(body) = 0.000000e+00
i(vd) = 1.460263e-11
i(vg) = 2.149217e-13
i(vs) = -1.48176e-11
i(vb) = 1.497389e-17
Doing analysis at TEMP = 25.000000 and TNOM = 27.000000


No. of Data Rows : 1
abs(v(alim)) = 2.500000e-01
v(drain) = 1.000000e-01
v(gate) = 0.000000e+00
v(source) = 2.500000e-01
v(body) = 0.000000e+00
i(vd) = 2.079873e-12
i(vg) = 2.381600e-13
i(vs) = -2.31805e-12
i(vb) = 1.593980e-17
Doing analysis at TEMP = 25.000000 and TNOM = 27.000000


No. of Data Rows : 1
abs(v(alim)) = 2.500000e-01
v(drain) = 1.500000e-01
v(gate) = 0.000000e+00
v(source) = 2.500000e-01
v(body) = 0.000000e+00
i(vd) = 2.254765e-13
i(vg) = 2.746607e-13
i(vs) = -5.00153e-13
i(vb) = 1.607474e-17
Doing analysis at TEMP = 25.000000 and TNOM = 27.000000


No. of Data Rows : 1
abs(v(alim)) = 2.500000e-01
v(drain) = 2.000000e-01
v(gate) = 0.000000e+00
v(source) = 2.500000e-01
v(body) = 0.000000e+00
i(vd) = -8.80904e-14
i(vg) = 3.282594e-13
i(vs) = -2.40185e-13
i(vb) = 1.609085e-17
Doing analysis at TEMP = 25.000000 and TNOM = 27.000000


No. of Data Rows : 1
abs(v(alim)) = 2.500000e-01
v(drain) = 2.500000e-01
v(gate) = 0.000000e+00
v(source) = 2.500000e-01
v(body) = 0.000000e+00
i(vd) = -2.01831e-13
i(vg) = 4.036454e-13
i(vs) = -2.01831e-13
i(vb) = 1.609022e-17
Doing analysis at TEMP = 25.000000 and TNOM = 27.000000


No. of Data Rows : 1
abs(v(alim)) = 2.500000e-01
v(drain) = 3.000000e-01
v(gate) = 0.000000e+00
v(source) = 2.500000e-01
v(body) = 0.000000e+00
i(vd) = -3.11219e-13
i(vg) = 5.065278e-13
i(vs) = -1.95325e-13
i(vb) = 1.609113e-17
Doing analysis at TEMP = 25.000000 and TNOM = 27.000000


No. of Data Rows : 1
abs(v(alim)) = 2.500000e-01
v(drain) = 3.500000e-01
v(gate) = 0.000000e+00
v(source) = 2.500000e-01
v(body) = 0.000000e+00
i(vd) = -4.50707e-13
i(vg) = 6.438305e-13
i(vs) = -1.93140e-13
i(vb) = 1.609169e-17
Doing analysis at TEMP = 25.000000 and TNOM = 27.000000


No. of Data Rows : 1
abs(v(alim)) = 2.500000e-01
v(drain) = 4.000000e-01
v(gate) = 0.000000e+00
v(source) = 2.500000e-01
v(body) = 0.000000e+00
i(vd) = -6.32840e-13
i(vg) = 8.239221e-13
i(vs) = -1.91098e-13
i(vb) = 1.609220e-17
Doing analysis at TEMP = 25.000000 and TNOM = 27.000000


No. of Data Rows : 1
abs(v(alim)) = 2.500000e-01
v(drain) = 4.500000e-01
v(gate) = 0.000000e+00
v(source) = 2.500000e-01
v(body) = 0.000000e+00
i(vd) = -8.68180e-13
i(vg) = 1.056886e-12
i(vs) = -1.88722e-13
i(vb) = 1.609271e-17
Doing analysis at TEMP = 25.000000 and TNOM = 27.000000


No. of Data Rows : 1
abs(v(alim)) = 2.500000e-01
v(drain) = 5.000000e-01
v(gate) = 0.000000e+00
v(source) = 2.500000e-01
v(body) = 0.000000e+00
i(vd) = -1.16898e-12
i(vg) = 1.354837e-12
i(vs) = -1.85872e-13
i(vb) = 1.609322e-17
Doing analysis at TEMP = 25.000000 and TNOM = 27.000000


No. of Data Rows : 1
abs(v(alim)) = 2.500000e-01
v(drain) = 5.500000e-01
v(gate) = 0.000000e+00
v(source) = 2.500000e-01
v(body) = 0.000000e+00
i(vd) = -1.54988e-12
i(vg) = 1.732292e-12
i(vs) = -1.82431e-13
i(vb) = 1.609373e-17
Doing analysis at TEMP = 25.000000 and TNOM = 27.000000


No. of Data Rows : 1
abs(v(alim)) = 2.500000e-01
v(drain) = 6.000000e-01
v(gate) = 0.000000e+00
v(source) = 2.500000e-01
v(body) = 0.000000e+00
i(vd) = -2.02836e-12
i(vg) = 2.206610e-12
i(vs) = -1.78266e-13
i(vb) = 1.609425e-17
Doing analysis at TEMP = 25.000000 and TNOM = 27.000000


No. of Data Rows : 1
abs(v(alim)) = 2.500000e-01
v(drain) = 6.500000e-01
v(gate) = 0.000000e+00
v(source) = 2.500000e-01
v(body) = 0.000000e+00
i(vd) = -2.62529e-12
i(vg) = 2.798492e-12
i(vs) = -1.73222e-13
i(vb) = 1.609477e-17
Doing analysis at TEMP = 25.000000 and TNOM = 27.000000


No. of Data Rows : 1
abs(v(alim)) = 2.500000e-01
v(drain) = 7.000000e-01
v(gate) = 0.000000e+00
v(source) = 2.500000e-01
v(body) = 0.000000e+00
i(vd) = -3.36549e-12
i(vg) = 3.532589e-12
i(vs) = -1.67111e-13
i(vb) = 1.609530e-17
Doing analysis at TEMP = 25.000000 and TNOM = 27.000000


No. of Data Rows : 1
abs(v(alim)) = 2.500000e-01
v(drain) = 7.500000e-01
v(gate) = 0.000000e+00
v(source) = 2.500000e-01
v(body) = 0.000000e+00
i(vd) = -4.27850e-12
i(vg) = 4.438187e-12
i(vs) = -1.59705e-13
i(vb) = 1.609584e-17
Doing analysis at TEMP = 25.000000 and TNOM = 27.000000


No. of Data Rows : 1
abs(v(alim)) = 2.500000e-01
v(drain) = 8.000000e-01
v(gate) = 0.000000e+00
v(source) = 2.500000e-01
v(body) = 0.000000e+00
i(vd) = -5.39931e-12
i(vg) = 5.550025e-12
i(vs) = -1.50728e-13
i(vb) = 1.609639e-17
Doing analysis at TEMP = 25.000000 and TNOM = 27.000000


No. of Data Rows : 1
abs(v(alim)) = 2.500000e-01
v(drain) = 8.500000e-01
v(gate) = 0.000000e+00
v(source) = 2.500000e-01
v(body) = 0.000000e+00
i(vd) = -6.76941e-12
i(vg) = 6.909243e-12
i(vs) = -1.39848e-13
i(vb) = 1.609695e-17
Doing analysis at TEMP = 25.000000 and TNOM = 27.000000


No. of Data Rows : 1
abs(v(alim)) = 2.500000e-01
v(drain) = 9.000000e-01
v(gate) = 0.000000e+00
v(source) = 2.500000e-01
v(body) = 0.000000e+00
i(vd) = -8.43784e-12
i(vg) = 8.564483e-12
i(vs) = -1.26655e-13
i(vb) = 1.609753e-17
Doing analysis at TEMP = 25.000000 and TNOM = 27.000000


No. of Data Rows : 1
abs(v(alim)) = 2.500000e-01
v(drain) = 9.500000e-01
v(gate) = 0.000000e+00
v(source) = 2.500000e-01
v(body) = 0.000000e+00
i(vd) = -1.04625e-11
i(vg) = 1.057318e-11
i(vs) = -1.10655e-13
i(vb) = 1.609813e-17
Doing analysis at TEMP = 25.000000 and TNOM = 27.000000


No. of Data Rows : 1
abs(v(alim)) = 2.500000e-01
v(drain) = 1.000000e+00
v(gate) = 0.000000e+00
v(source) = 2.500000e-01
v(body) = 0.000000e+00
i(vd) = -1.29118e-11
i(vg) = 1.300304e-11
i(vs) = -9.12358e-14
i(vb) = 1.610638e-17
Doing analysis at TEMP = 25.000000 and TNOM = 27.000000


No. of Data Rows : 1
abs(v(alim)) = 2.500000e-01
v(drain) = 1.050000e+00
v(gate) = 0.000000e+00
v(source) = 2.500000e-01
v(body) = 0.000000e+00
i(vd) = -1.58662e-11
i(vg) = 1.593382e-11
i(vs) = -6.76494e-14
i(vb) = 4.115072e-17
Doing analysis at TEMP = 25.000000 and TNOM = 27.000000


No. of Data Rows : 1
abs(v(alim)) = 2.500000e-01
v(drain) = 1.100000e+00
v(gate) = 0.000000e+00
v(source) = 2.500000e-01
v(body) = 0.000000e+00
i(vd) = -1.94261e-11
i(vg) = 1.945931e-11
i(vs) = -3.89707e-14
i(vb) = 5.744945e-15
Doing analysis at TEMP = 25.000000 and TNOM = 27.000000


No. of Data Rows : 1
abs(v(alim)) = 3.000000e-01
v(drain) = 0.000000e+00
v(gate) = 0.000000e+00
v(source) = 3.000000e-01
v(body) = 0.000000e+00
i(vd) = 1.191133e-10
i(vg) = 3.047051e-13
i(vs) = -1.19418e-10
i(vb) = 8.283840e-18
Doing analysis at TEMP = 25.000000 and TNOM = 27.000000


No. of Data Rows : 1
abs(v(alim)) = 3.000000e-01
v(drain) = 5.000000e-02
v(gate) = 0.000000e+00
v(source) = 3.000000e-01
v(body) = 0.000000e+00
i(vd) = 1.768722e-11
i(vg) = 3.178040e-13
i(vs) = -1.80050e-11
i(vb) = 1.498477e-17
Doing analysis at TEMP = 25.000000 and TNOM = 27.000000


No. of Data Rows : 1
abs(v(alim)) = 3.000000e-01
v(drain) = 1.000000e-01
v(gate) = 0.000000e+00
v(source) = 3.000000e-01
v(body) = 0.000000e+00
i(vd) = 2.538929e-12
i(vg) = 3.410424e-13
i(vs) = -2.87999e-12
i(vb) = 1.594200e-17
Doing analysis at TEMP = 25.000000 and TNOM = 27.000000


No. of Data Rows : 1
abs(v(alim)) = 3.000000e-01
v(drain) = 1.500000e-01
v(gate) = 0.000000e+00
v(source) = 3.000000e-01
v(body) = 0.000000e+00
i(vd) = 2.946725e-13
i(vg) = 3.775431e-13
i(vs) = -6.72232e-13
i(vb) = 1.607581e-17
Doing analysis at TEMP = 25.000000 and TNOM = 27.000000


No. of Data Rows : 1
abs(v(alim)) = 3.000000e-01
v(drain) = 2.000000e-01
v(gate) = 0.000000e+00
v(source) = 3.000000e-01
v(body) = 0.000000e+00
i(vd) = -7.52753e-14
i(vg) = 4.311418e-13
i(vs) = -3.55883e-13
i(vb) = 1.609178e-17
Doing analysis at TEMP = 25.000000 and TNOM = 27.000000


No. of Data Rows : 1
abs(v(alim)) = 3.000000e-01
v(drain) = 2.500000e-01
v(gate) = 0.000000e+00
v(source) = 3.000000e-01
v(body) = 0.000000e+00
i(vd) = -1.95325e-13
i(vg) = 5.065278e-13
i(vs) = -3.11219e-13
i(vb) = 1.609113e-17
Doing analysis at TEMP = 25.000000 and TNOM = 27.000000


No. of Data Rows : 1
abs(v(alim)) = 3.000000e-01
v(drain) = 3.000000e-01
v(gate) = 0.000000e+00
v(source) = 3.000000e-01
v(body) = 0.000000e+00
i(vd) = -3.04713e-13
i(vg) = 6.094101e-13
i(vs) = -3.04713e-13
i(vb) = 1.608837e-17
Doing analysis at TEMP = 25.000000 and TNOM = 27.000000


No. of Data Rows : 1
abs(v(alim)) = 3.000000e-01
v(drain) = 3.500000e-01
v(gate) = 0.000000e+00
v(source) = 3.000000e-01
v(body) = 0.000000e+00
i(vd) = -4.43110e-13
i(vg) = 7.467128e-13
i(vs) = -3.03619e-13
i(vb) = 1.608893e-17
Doing analysis at TEMP = 25.000000 and TNOM = 27.000000


No. of Data Rows : 1
abs(v(alim)) = 3.000000e-01
v(drain) = 4.000000e-01
v(gate) = 0.000000e+00
v(source) = 3.000000e-01
v(body) = 0.000000e+00
i(vd) = -6.23571e-13
i(vg) = 9.268044e-13
i(vs) = -3.03250e-13
i(vb) = 1.608944e-17
Doing analysis at TEMP = 25.000000 and TNOM = 27.000000


No. of Data Rows : 1
abs(v(alim)) = 3.000000e-01
v(drain) = 4.500000e-01
v(gate) = 0.000000e+00
v(source) = 3.000000e-01
v(body) = 0.000000e+00
i(vd) = -8.56880e-13
i(vg) = 1.159768e-12
i(vs) = -3.02904e-13
i(vb) = 1.608994e-17
Doing analysis at TEMP = 25.000000 and TNOM = 27.000000


No. of Data Rows : 1
abs(v(alim)) = 3.000000e-01
v(drain) = 5.000000e-01
v(gate) = 0.000000e+00
v(source) = 3.000000e-01
v(body) = 0.000000e+00
i(vd) = -1.15523e-12
i(vg) = 1.457719e-12
i(vs) = -3.02501e-13
i(vb) = 1.609045e-17
Doing analysis at TEMP = 25.000000 and TNOM = 27.000000


No. of Data Rows : 1
abs(v(alim)) = 3.000000e-01
v(drain) = 5.500000e-01
v(gate) = 0.000000e+00
v(source) = 3.000000e-01
v(body) = 0.000000e+00
i(vd) = -1.53317e-12
i(vg) = 1.835175e-12
i(vs) = -3.02018e-13
i(vb) = 1.609095e-17
Doing analysis at TEMP = 25.000000 and TNOM = 27.000000


No. of Data Rows : 1
abs(v(alim)) = 3.000000e-01
v(drain) = 6.000000e-01
v(gate) = 0.000000e+00
v(source) = 3.000000e-01
v(body) = 0.000000e+00
i(vd) = -2.00807e-12
i(vg) = 2.309492e-12
i(vs) = -3.01433e-13
i(vb) = 1.609145e-17
Doing analysis at TEMP = 25.000000 and TNOM = 27.000000


No. of Data Rows : 1
abs(v(alim)) = 3.000000e-01
v(drain) = 6.500000e-01
v(gate) = 0.000000e+00
v(source) = 3.000000e-01
v(body) = 0.000000e+00
i(vd) = -2.60067e-12
i(vg) = 2.901375e-12
i(vs) = -3.00725e-13
i(vb) = 1.609195e-17
Doing analysis at TEMP = 25.000000 and TNOM = 27.000000


No. of Data Rows : 1
abs(v(alim)) = 3.000000e-01
v(drain) = 7.000000e-01
v(gate) = 0.000000e+00
v(source) = 3.000000e-01
v(body) = 0.000000e+00
i(vd) = -3.33562e-12
i(vg) = 3.635471e-12
i(vs) = -2.99866e-13
i(vb) = 1.609246e-17
Doing analysis at TEMP = 25.000000 and TNOM = 27.000000


No. of Data Rows : 1
abs(v(alim)) = 3.000000e-01
v(drain) = 7.500000e-01
v(gate) = 0.000000e+00
v(source) = 3.000000e-01
v(body) = 0.000000e+00
i(vd) = -4.24226e-12
i(vg) = 4.541069e-12
i(vs) = -2.98824e-13
i(vb) = 1.609296e-17
Doing analysis at TEMP = 25.000000 and TNOM = 27.000000


No. of Data Rows : 1
abs(v(alim)) = 3.000000e-01
v(drain) = 8.000000e-01
v(gate) = 0.000000e+00
v(source) = 3.000000e-01
v(body) = 0.000000e+00
i(vd) = -5.35536e-12
i(vg) = 5.652908e-12
i(vs) = -2.97560e-13
i(vb) = 1.609347e-17
Doing analysis at TEMP = 25.000000 and TNOM = 27.000000


No. of Data Rows : 1
abs(v(alim)) = 3.000000e-01
v(drain) = 8.500000e-01
v(gate) = 0.000000e+00
v(source) = 3.000000e-01
v(body) = 0.000000e+00
i(vd) = -6.71612e-12
i(vg) = 7.012126e-12
i(vs) = -2.96026e-13
i(vb) = 1.609398e-17
Doing analysis at TEMP = 25.000000 and TNOM = 27.000000


No. of Data Rows : 1
abs(v(alim)) = 3.000000e-01
v(drain) = 9.000000e-01
v(gate) = 0.000000e+00
v(source) = 3.000000e-01
v(body) = 0.000000e+00
i(vd) = -8.37322e-12
i(vg) = 8.667365e-12
i(vs) = -2.94165e-13
i(vb) = 1.609449e-17
Doing analysis at TEMP = 25.000000 and TNOM = 27.000000


No. of Data Rows : 1
abs(v(alim)) = 3.000000e-01
v(drain) = 9.500000e-01
v(gate) = 0.000000e+00
v(source) = 3.000000e-01
v(body) = 0.000000e+00
i(vd) = -1.03842e-11
i(vg) = 1.067606e-11
i(vs) = -2.91906e-13
i(vb) = 1.609500e-17
Doing analysis at TEMP = 25.000000 and TNOM = 27.000000


No. of Data Rows : 1
abs(v(alim)) = 3.000000e-01
v(drain) = 1.000000e+00
v(gate) = 0.000000e+00
v(source) = 3.000000e-01
v(body) = 0.000000e+00
i(vd) = -1.28168e-11
i(vg) = 1.310592e-11
i(vs) = -2.89163e-13
i(vb) = 1.610314e-17
Doing analysis at TEMP = 25.000000 and TNOM = 27.000000


No. of Data Rows : 1
abs(v(alim)) = 3.000000e-01
v(drain) = 1.050000e+00
v(gate) = 0.000000e+00
v(source) = 3.000000e-01
v(body) = 0.000000e+00
i(vd) = -1.57509e-11
i(vg) = 1.603670e-11
i(vs) = -2.85830e-13
i(vb) = 4.114733e-17
Doing analysis at TEMP = 25.000000 and TNOM = 27.000000


No. of Data Rows : 1
abs(v(alim)) = 3.000000e-01
v(drain) = 1.100000e+00
v(gate) = 0.000000e+00
v(source) = 3.000000e-01
v(body) = 0.000000e+00
i(vd) = -1.92862e-11
i(vg) = 1.956220e-11
i(vs) = -2.81778e-13
i(vb) = 5.744942e-15
Doing analysis at TEMP = 25.000000 and TNOM = 27.000000


No. of Data Rows : 1
abs(v(alim)) = 3.500000e-01
v(drain) = 0.000000e+00
v(gate) = 0.000000e+00
v(source) = 3.500000e-01
v(body) = 0.000000e+00
i(vd) = 1.436414e-10
i(vg) = 4.420077e-13
i(vs) = -1.44083e-10
i(vb) = 8.382725e-18
Doing analysis at TEMP = 25.000000 and TNOM = 27.000000


No. of Data Rows : 1
abs(v(alim)) = 3.500000e-01
v(drain) = 5.000000e-02
v(gate) = 0.000000e+00
v(source) = 3.500000e-01
v(body) = 0.000000e+00
i(vd) = 2.139086e-11
i(vg) = 4.551067e-13
i(vs) = -2.18460e-11
i(vb) = 1.499872e-17
Doing analysis at TEMP = 25.000000 and TNOM = 27.000000


No. of Data Rows : 1
abs(v(alim)) = 3.500000e-01
v(drain) = 1.000000e-01
v(gate) = 0.000000e+00
v(source) = 3.500000e-01
v(body) = 0.000000e+00
i(vd) = 3.087190e-12
i(vg) = 4.783451e-13
i(vs) = -3.56555e-12
i(vb) = 1.594433e-17
Doing analysis at TEMP = 25.000000 and TNOM = 27.000000


No. of Data Rows : 1
abs(v(alim)) = 3.500000e-01
v(drain) = 1.500000e-01
v(gate) = 0.000000e+00
v(source) = 3.500000e-01
v(body) = 0.000000e+00
i(vd) = 3.749939e-13
i(vg) = 5.148458e-13
i(vs) = -8.89856e-13
i(vb) = 1.607660e-17
Doing analysis at TEMP = 25.000000 and TNOM = 27.000000


No. of Data Rows : 1
abs(v(alim)) = 3.500000e-01
v(drain) = 2.000000e-01
v(gate) = 0.000000e+00
v(source) = 3.500000e-01
v(body) = 0.000000e+00
i(vd) = -6.33288e-14
i(vg) = 5.684444e-13
i(vs) = -5.05132e-13
i(vb) = 1.609236e-17
Doing analysis at TEMP = 25.000000 and TNOM = 27.000000


No. of Data Rows : 1
abs(v(alim)) = 3.500000e-01
v(drain) = 2.500000e-01
v(gate) = 0.000000e+00
v(source) = 3.500000e-01
v(body) = 0.000000e+00
i(vd) = -1.93140e-13
i(vg) = 6.438305e-13
i(vs) = -4.50707e-13
i(vb) = 1.609169e-17
Doing analysis at TEMP = 25.000000 and TNOM = 27.000000


No. of Data Rows : 1
abs(v(alim)) = 3.500000e-01
v(drain) = 3.000000e-01
v(gate) = 0.000000e+00
v(source) = 3.500000e-01
v(body) = 0.000000e+00
i(vd) = -3.03619e-13
i(vg) = 7.467128e-13
i(vs) = -4.43110e-13
i(vb) = 1.608893e-17
Doing analysis at TEMP = 25.000000 and TNOM = 27.000000


No. of Data Rows : 1
abs(v(alim)) = 3.500000e-01
v(drain) = 3.500000e-01
v(gate) = 0.000000e+00
v(source) = 3.500000e-01
v(body) = 0.000000e+00
i(vd) = -4.42016e-13
i(vg) = 8.840155e-13
i(vs) = -4.42016e-13
i(vb) = 1.608612e-17
Doing analysis at TEMP = 25.000000 and TNOM = 27.000000


No. of Data Rows : 1
abs(v(alim)) = 3.500000e-01
v(drain) = 4.000000e-01
v(gate) = 0.000000e+00
v(source) = 3.500000e-01
v(body) = 0.000000e+00
i(vd) = -6.22290e-13
i(vg) = 1.064107e-12
i(vs) = -4.41833e-13
i(vb) = 1.608663e-17
Doing analysis at TEMP = 25.000000 and TNOM = 27.000000


No. of Data Rows : 1
abs(v(alim)) = 3.500000e-01
v(drain) = 4.500000e-01
v(gate) = 0.000000e+00
v(source) = 3.500000e-01
v(body) = 0.000000e+00
i(vd) = -8.55316e-13
i(vg) = 1.297071e-12
i(vs) = -4.41771e-13
i(vb) = 1.608713e-17
Doing analysis at TEMP = 25.000000 and TNOM = 27.000000


No. of Data Rows : 1
abs(v(alim)) = 3.500000e-01
v(drain) = 5.000000e-01
v(gate) = 0.000000e+00
v(source) = 3.500000e-01
v(body) = 0.000000e+00
i(vd) = -1.15332e-12
i(vg) = 1.595022e-12
i(vs) = -4.41713e-13
i(vb) = 1.608763e-17
Doing analysis at TEMP = 25.000000 and TNOM = 27.000000


No. of Data Rows : 1
abs(v(alim)) = 3.500000e-01
v(drain) = 5.500000e-01
v(gate) = 0.000000e+00
v(source) = 3.500000e-01
v(body) = 0.000000e+00
i(vd) = -1.53085e-12
i(vg) = 1.972478e-12
i(vs) = -4.41646e-13
i(vb) = 1.608813e-17
Doing analysis at TEMP = 25.000000 and TNOM = 27.000000


No. of Data Rows : 1
abs(v(alim)) = 3.500000e-01
v(drain) = 6.000000e-01
v(gate) = 0.000000e+00
v(source) = 3.500000e-01
v(body) = 0.000000e+00
i(vd) = -2.00525e-12
i(vg) = 2.446795e-12
i(vs) = -4.41564e-13
i(vb) = 1.608863e-17
Doing analysis at TEMP = 25.000000 and TNOM = 27.000000


No. of Data Rows : 1
abs(v(alim)) = 3.500000e-01
v(drain) = 6.500000e-01
v(gate) = 0.000000e+00
v(source) = 3.500000e-01
v(body) = 0.000000e+00
i(vd) = -2.59723e-12
i(vg) = 3.038677e-12
i(vs) = -4.41466e-13
i(vb) = 1.608913e-17
Doing analysis at TEMP = 25.000000 and TNOM = 27.000000


No. of Data Rows : 1
abs(v(alim)) = 3.500000e-01
v(drain) = 7.000000e-01
v(gate) = 0.000000e+00
v(source) = 3.500000e-01
v(body) = 0.000000e+00
i(vd) = -3.33144e-12
i(vg) = 3.772774e-12
i(vs) = -4.41346e-13
i(vb) = 1.608963e-17
Doing analysis at TEMP = 25.000000 and TNOM = 27.000000


No. of Data Rows : 1
abs(v(alim)) = 3.500000e-01
v(drain) = 7.500000e-01
v(gate) = 0.000000e+00
v(source) = 3.500000e-01
v(body) = 0.000000e+00
i(vd) = -4.23719e-12
i(vg) = 4.678372e-12
i(vs) = -4.41201e-13
i(vb) = 1.609013e-17
Doing analysis at TEMP = 25.000000 and TNOM = 27.000000


No. of Data Rows : 1
abs(v(alim)) = 3.500000e-01
v(drain) = 8.000000e-01
v(gate) = 0.000000e+00
v(source) = 3.500000e-01
v(body) = 0.000000e+00
i(vd) = -5.34920e-12
i(vg) = 5.790210e-12
i(vs) = -4.41025e-13
i(vb) = 1.609063e-17
Doing analysis at TEMP = 25.000000 and TNOM = 27.000000


No. of Data Rows : 1
abs(v(alim)) = 3.500000e-01
v(drain) = 8.500000e-01
v(gate) = 0.000000e+00
v(source) = 3.500000e-01
v(body) = 0.000000e+00
i(vd) = -6.70863e-12
i(vg) = 7.149428e-12
i(vs) = -4.40811e-13
i(vb) = 1.609113e-17
Doing analysis at TEMP = 25.000000 and TNOM = 27.000000


No. of Data Rows : 1
abs(v(alim)) = 3.500000e-01
v(drain) = 9.000000e-01
v(gate) = 0.000000e+00
v(source) = 3.500000e-01
v(body) = 0.000000e+00
i(vd) = -8.36413e-12
i(vg) = 8.804668e-12
i(vs) = -4.40552e-13
i(vb) = 1.609163e-17
Doing analysis at TEMP = 25.000000 and TNOM = 27.000000


No. of Data Rows : 1
abs(v(alim)) = 3.500000e-01
v(drain) = 9.500000e-01
v(gate) = 0.000000e+00
v(source) = 3.500000e-01
v(body) = 0.000000e+00
i(vd) = -1.03731e-11
i(vg) = 1.081336e-11
i(vs) = -4.40236e-13
i(vb) = 1.609213e-17
Doing analysis at TEMP = 25.000000 and TNOM = 27.000000


No. of Data Rows : 1
abs(v(alim)) = 3.500000e-01
v(drain) = 1.000000e+00
v(gate) = 0.000000e+00
v(source) = 3.500000e-01
v(body) = 0.000000e+00
i(vd) = -1.28034e-11
i(vg) = 1.324323e-11
i(vs) = -4.39853e-13
i(vb) = 1.610025e-17
Doing analysis at TEMP = 25.000000 and TNOM = 27.000000


No. of Data Rows : 1
abs(v(alim)) = 3.500000e-01
v(drain) = 1.050000e+00
v(gate) = 0.000000e+00
v(source) = 3.500000e-01
v(body) = 0.000000e+00
i(vd) = -1.57347e-11
i(vg) = 1.617401e-11
i(vs) = -4.39387e-13
i(vb) = 4.114443e-17
Doing analysis at TEMP = 25.000000 and TNOM = 27.000000


No. of Data Rows : 1
abs(v(alim)) = 3.500000e-01
v(drain) = 1.100000e+00
v(gate) = 0.000000e+00
v(source) = 3.500000e-01
v(body) = 0.000000e+00
i(vd) = -1.92664e-11
i(vg) = 1.969950e-11
i(vs) = -4.38820e-13
i(vb) = 5.744939e-15
Doing analysis at TEMP = 25.000000 and TNOM = 27.000000


No. of Data Rows : 1
abs(v(alim)) = 4.000000e-01
v(drain) = 0.000000e+00
v(gate) = 0.000000e+00
v(source) = 4.000000e-01
v(body) = 0.000000e+00
i(vd) = 1.731189e-10
i(vg) = 6.220994e-13
i(vs) = -1.73741e-10
i(vb) = 8.512302e-18
Doing analysis at TEMP = 25.000000 and TNOM = 27.000000


No. of Data Rows : 1
abs(v(alim)) = 4.000000e-01
v(drain) = 5.000000e-02
v(gate) = 0.000000e+00
v(source) = 4.000000e-01
v(body) = 0.000000e+00
i(vd) = 2.584783e-11
i(vg) = 6.351983e-13
i(vs) = -2.64830e-11
i(vb) = 1.501701e-17
Doing analysis at TEMP = 25.000000 and TNOM = 27.000000


No. of Data Rows : 1
abs(v(alim)) = 4.000000e-01
v(drain) = 1.000000e-01
v(gate) = 0.000000e+00
v(source) = 4.000000e-01
v(body) = 0.000000e+00
i(vd) = 3.746596e-12
i(vg) = 6.584367e-13
i(vs) = -4.40505e-12
i(vb) = 1.594721e-17
Doing analysis at TEMP = 25.000000 and TNOM = 27.000000


No. of Data Rows : 1
abs(v(alim)) = 4.000000e-01
v(drain) = 1.500000e-01
v(gate) = 0.000000e+00
v(source) = 4.000000e-01
v(body) = 0.000000e+00
i(vd) = 4.710670e-13
i(vg) = 6.949374e-13
i(vs) = -1.16602e-12
i(vb) = 1.607741e-17
Doing analysis at TEMP = 25.000000 and TNOM = 27.000000


No. of Data Rows : 1
abs(v(alim)) = 4.000000e-01
v(drain) = 2.000000e-01
v(gate) = 0.000000e+00
v(source) = 4.000000e-01
v(body) = 0.000000e+00
i(vd) = -4.94408e-14
i(vg) = 7.485361e-13
i(vs) = -6.99111e-13
i(vb) = 1.609291e-17
Doing analysis at TEMP = 25.000000 and TNOM = 27.000000


No. of Data Rows : 1
abs(v(alim)) = 4.000000e-01
v(drain) = 2.500000e-01
v(gate) = 0.000000e+00
v(source) = 4.000000e-01
v(body) = 0.000000e+00
i(vd) = -1.91098e-13
i(vg) = 8.239221e-13
i(vs) = -6.32840e-13
i(vb) = 1.609220e-17
Doing analysis at TEMP = 25.000000 and TNOM = 27.000000


No. of Data Rows : 1
abs(v(alim)) = 4.000000e-01
v(drain) = 3.000000e-01
v(gate) = 0.000000e+00
v(source) = 4.000000e-01
v(body) = 0.000000e+00
i(vd) = -3.03250e-13
i(vg) = 9.268044e-13
i(vs) = -6.23571e-13
i(vb) = 1.608944e-17
Doing analysis at TEMP = 25.000000 and TNOM = 27.000000


No. of Data Rows : 1
abs(v(alim)) = 4.000000e-01
v(drain) = 3.500000e-01
v(gate) = 0.000000e+00
v(source) = 4.000000e-01
v(body) = 0.000000e+00
i(vd) = -4.41833e-13
i(vg) = 1.064107e-12
i(vs) = -6.22290e-13
i(vb) = 1.608663e-17
Doing analysis at TEMP = 25.000000 and TNOM = 27.000000


No. of Data Rows : 1
abs(v(alim)) = 4.000000e-01
v(drain) = 4.000000e-01
v(gate) = 0.000000e+00
v(source) = 4.000000e-01
v(body) = 0.000000e+00
i(vd) = -6.22107e-13
i(vg) = 1.244199e-12
i(vs) = -6.22107e-13
i(vb) = 1.608401e-17
Doing analysis at TEMP = 25.000000 and TNOM = 27.000000


No. of Data Rows : 1
abs(v(alim)) = 4.000000e-01
v(drain) = 4.500000e-01
v(gate) = 0.000000e+00
v(source) = 4.000000e-01
v(body) = 0.000000e+00
i(vd) = -8.55101e-13
i(vg) = 1.477163e-12
i(vs) = -6.22077e-13
i(vb) = 1.608452e-17
Doing analysis at TEMP = 25.000000 and TNOM = 27.000000


No. of Data Rows : 1
abs(v(alim)) = 4.000000e-01
v(drain) = 5.000000e-01
v(gate) = 0.000000e+00
v(source) = 4.000000e-01
v(body) = 0.000000e+00
i(vd) = -1.15306e-12
i(vg) = 1.775113e-12
i(vs) = -6.22067e-13
i(vb) = 1.608502e-17
Doing analysis at TEMP = 25.000000 and TNOM = 27.000000


No. of Data Rows : 1
abs(v(alim)) = 4.000000e-01
v(drain) = 5.500000e-01
v(gate) = 0.000000e+00
v(source) = 4.000000e-01
v(body) = 0.000000e+00
i(vd) = -1.53053e-12
i(vg) = 2.152569e-12
i(vs) = -6.22057e-13
i(vb) = 1.608552e-17
Doing analysis at TEMP = 25.000000 and TNOM = 27.000000


No. of Data Rows : 1
abs(v(alim)) = 4.000000e-01
v(drain) = 6.000000e-01
v(gate) = 0.000000e+00
v(source) = 4.000000e-01
v(body) = 0.000000e+00
i(vd) = -2.00486e-12
i(vg) = 2.626886e-12
i(vs) = -6.22046e-13
i(vb) = 1.608602e-17
Doing analysis at TEMP = 25.000000 and TNOM = 27.000000


No. of Data Rows : 1
abs(v(alim)) = 4.000000e-01
v(drain) = 6.500000e-01
v(gate) = 0.000000e+00
v(source) = 4.000000e-01
v(body) = 0.000000e+00
i(vd) = -2.59675e-12
i(vg) = 3.218769e-12
i(vs) = -6.22032e-13
i(vb) = 1.608652e-17
Doing analysis at TEMP = 25.000000 and TNOM = 27.000000


No. of Data Rows : 1
abs(v(alim)) = 4.000000e-01
v(drain) = 7.000000e-01
v(gate) = 0.000000e+00
v(source) = 4.000000e-01
v(body) = 0.000000e+00
i(vd) = -3.33087e-12
i(vg) = 3.952866e-12
i(vs) = -6.22016e-13
i(vb) = 1.608702e-17
Doing analysis at TEMP = 25.000000 and TNOM = 27.000000


No. of Data Rows : 1
abs(v(alim)) = 4.000000e-01
v(drain) = 7.500000e-01
v(gate) = 0.000000e+00
v(source) = 4.000000e-01
v(body) = 0.000000e+00
i(vd) = -4.23648e-12
i(vg) = 4.858464e-12
i(vs) = -6.21996e-13
i(vb) = 1.608752e-17
Doing analysis at TEMP = 25.000000 and TNOM = 27.000000


No. of Data Rows : 1
abs(v(alim)) = 4.000000e-01
v(drain) = 8.000000e-01
v(gate) = 0.000000e+00
v(source) = 4.000000e-01
v(body) = 0.000000e+00
i(vd) = -5.34835e-12
i(vg) = 5.970302e-12
i(vs) = -6.21972e-13
i(vb) = 1.608802e-17
Doing analysis at TEMP = 25.000000 and TNOM = 27.000000


No. of Data Rows : 1
abs(v(alim)) = 4.000000e-01
v(drain) = 8.500000e-01
v(gate) = 0.000000e+00
v(source) = 4.000000e-01
v(body) = 0.000000e+00
i(vd) = -6.70759e-12
i(vg) = 7.329520e-12
i(vs) = -6.21942e-13
i(vb) = 1.608852e-17
Doing analysis at TEMP = 25.000000 and TNOM = 27.000000


No. of Data Rows : 1
abs(v(alim)) = 4.000000e-01
v(drain) = 9.000000e-01
v(gate) = 0.000000e+00
v(source) = 4.000000e-01
v(body) = 0.000000e+00
i(vd) = -8.36287e-12
i(vg) = 8.984760e-12
i(vs) = -6.21906e-13
i(vb) = 1.608902e-17
Doing analysis at TEMP = 25.000000 and TNOM = 27.000000


No. of Data Rows : 1
abs(v(alim)) = 4.000000e-01
v(drain) = 9.500000e-01
v(gate) = 0.000000e+00
v(source) = 4.000000e-01
v(body) = 0.000000e+00
i(vd) = -1.03716e-11
i(vg) = 1.099345e-11
i(vs) = -6.21863e-13
i(vb) = 1.608952e-17
Doing analysis at TEMP = 25.000000 and TNOM = 27.000000


No. of Data Rows : 1
abs(v(alim)) = 4.000000e-01
v(drain) = 1.000000e+00
v(gate) = 0.000000e+00
v(source) = 4.000000e-01
v(body) = 0.000000e+00
i(vd) = -1.28015e-11
i(vg) = 1.342332e-11
i(vs) = -6.21810e-13
i(vb) = 1.609764e-17
Doing analysis at TEMP = 25.000000 and TNOM = 27.000000


No. of Data Rows : 1
abs(v(alim)) = 4.000000e-01
v(drain) = 1.050000e+00
v(gate) = 0.000000e+00
v(source) = 4.000000e-01
v(body) = 0.000000e+00
i(vd) = -1.57324e-11
i(vg) = 1.635410e-11
i(vs) = -6.21745e-13
i(vb) = 4.114180e-17
Doing analysis at TEMP = 25.000000 and TNOM = 27.000000


No. of Data Rows : 1
abs(v(alim)) = 4.000000e-01
v(drain) = 1.100000e+00
v(gate) = 0.000000e+00
v(source) = 4.000000e-01
v(body) = 0.000000e+00
i(vd) = -1.92637e-11
i(vg) = 1.987959e-11
i(vs) = -6.21666e-13
i(vb) = 5.744936e-15
Doing analysis at TEMP = 25.000000 and TNOM = 27.000000


No. of Data Rows : 1
abs(v(alim)) = 4.500000e-01
v(drain) = 0.000000e+00
v(gate) = 0.000000e+00
v(source) = 4.500000e-01
v(body) = 0.000000e+00
i(vd) = 2.085544e-10
i(vg) = 8.550632e-13
i(vs) = -2.09409e-10
i(vb) = 8.680993e-18
Doing analysis at TEMP = 25.000000 and TNOM = 27.000000


No. of Data Rows : 1
abs(v(alim)) = 4.500000e-01
v(drain) = 5.000000e-02
v(gate) = 0.000000e+00
v(source) = 4.500000e-01
v(body) = 0.000000e+00
i(vd) = 3.121592e-11
i(vg) = 8.681622e-13
i(vs) = -3.20841e-11
i(vb) = 1.504090e-17
Doing analysis at TEMP = 25.000000 and TNOM = 27.000000


No. of Data Rows : 1
abs(v(alim)) = 4.500000e-01
v(drain) = 1.000000e-01
v(gate) = 0.000000e+00
v(source) = 4.500000e-01
v(body) = 0.000000e+00
i(vd) = 4.541471e-12
i(vg) = 8.914005e-13
i(vs) = -5.43289e-12
i(vb) = 1.595087e-17
Doing analysis at TEMP = 25.000000 and TNOM = 27.000000


No. of Data Rows : 1
abs(v(alim)) = 4.500000e-01
v(drain) = 1.500000e-01
v(gate) = 0.000000e+00
v(source) = 4.500000e-01
v(body) = 0.000000e+00
i(vd) = 5.867837e-13
i(vg) = 9.279012e-13
i(vs) = -1.51470e-12
i(vb) = 1.607833e-17
Doing analysis at TEMP = 25.000000 and TNOM = 27.000000


No. of Data Rows : 1
abs(v(alim)) = 4.500000e-01
v(drain) = 2.000000e-01
v(gate) = 0.000000e+00
v(source) = 4.500000e-01
v(body) = 0.000000e+00
i(vd) = -3.28068e-14
i(vg) = 9.814999e-13
i(vs) = -9.48709e-13
i(vb) = 1.609346e-17
Doing analysis at TEMP = 25.000000 and TNOM = 27.000000


No. of Data Rows : 1
abs(v(alim)) = 4.500000e-01
v(drain) = 2.500000e-01
v(gate) = 0.000000e+00
v(source) = 4.500000e-01
v(body) = 0.000000e+00
i(vd) = -1.88722e-13
i(vg) = 1.056886e-12
i(vs) = -8.68180e-13
i(vb) = 1.609271e-17
Doing analysis at TEMP = 25.000000 and TNOM = 27.000000


No. of Data Rows : 1
abs(v(alim)) = 4.500000e-01
v(drain) = 3.000000e-01
v(gate) = 0.000000e+00
v(source) = 4.500000e-01
v(body) = 0.000000e+00
i(vd) = -3.02904e-13
i(vg) = 1.159768e-12
i(vs) = -8.56880e-13
i(vb) = 1.608994e-17
Doing analysis at TEMP = 25.000000 and TNOM = 27.000000


No. of Data Rows : 1
abs(v(alim)) = 4.500000e-01
v(drain) = 3.500000e-01
v(gate) = 0.000000e+00
v(source) = 4.500000e-01
v(body) = 0.000000e+00
i(vd) = -4.41771e-13
i(vg) = 1.297071e-12
i(vs) = -8.55316e-13
i(vb) = 1.608713e-17
Doing analysis at TEMP = 25.000000 and TNOM = 27.000000


No. of Data Rows : 1
abs(v(alim)) = 4.500000e-01
v(drain) = 4.000000e-01
v(gate) = 0.000000e+00
v(source) = 4.500000e-01
v(body) = 0.000000e+00
i(vd) = -6.22077e-13
i(vg) = 1.477163e-12
i(vs) = -8.55101e-13
i(vb) = 1.608452e-17
Doing analysis at TEMP = 25.000000 and TNOM = 27.000000


No. of Data Rows : 1
abs(v(alim)) = 4.500000e-01
v(drain) = 4.500000e-01
v(gate) = 0.000000e+00
v(source) = 4.500000e-01
v(body) = 0.000000e+00
i(vd) = -8.55071e-13
i(vg) = 1.710126e-12
i(vs) = -8.55071e-13
i(vb) = 1.608212e-17
Doing analysis at TEMP = 25.000000 and TNOM = 27.000000


No. of Data Rows : 1
abs(v(alim)) = 4.500000e-01
v(drain) = 5.000000e-01
v(gate) = 0.000000e+00
v(source) = 4.500000e-01
v(body) = 0.000000e+00
i(vd) = -1.15303e-12
i(vg) = 2.008077e-12
i(vs) = -8.55066e-13
i(vb) = 1.608262e-17
Doing analysis at TEMP = 25.000000 and TNOM = 27.000000


No. of Data Rows : 1
abs(v(alim)) = 4.500000e-01
v(drain) = 5.500000e-01
v(gate) = 0.000000e+00
v(source) = 4.500000e-01
v(body) = 0.000000e+00
i(vd) = -1.53048e-12
i(vg) = 2.385533e-12
i(vs) = -8.55065e-13
i(vb) = 1.608312e-17
Doing analysis at TEMP = 25.000000 and TNOM = 27.000000


No. of Data Rows : 1
abs(v(alim)) = 4.500000e-01
v(drain) = 6.000000e-01
v(gate) = 0.000000e+00
v(source) = 4.500000e-01
v(body) = 0.000000e+00
i(vd) = -2.00480e-12
i(vg) = 2.859850e-12
i(vs) = -8.55063e-13
i(vb) = 1.608362e-17
Doing analysis at TEMP = 25.000000 and TNOM = 27.000000


No. of Data Rows : 1
abs(v(alim)) = 4.500000e-01
v(drain) = 6.500000e-01
v(gate) = 0.000000e+00
v(source) = 4.500000e-01
v(body) = 0.000000e+00
i(vd) = -2.59669e-12
i(vg) = 3.451733e-12
i(vs) = -8.55061e-13
i(vb) = 1.608412e-17
Doing analysis at TEMP = 25.000000 and TNOM = 27.000000


No. of Data Rows : 1
abs(v(alim)) = 4.500000e-01
v(drain) = 7.000000e-01
v(gate) = 0.000000e+00
v(source) = 4.500000e-01
v(body) = 0.000000e+00
i(vd) = -3.33079e-12
i(vg) = 4.185830e-12
i(vs) = -8.55059e-13
i(vb) = 1.608462e-17
Doing analysis at TEMP = 25.000000 and TNOM = 27.000000


No. of Data Rows : 1
abs(v(alim)) = 4.500000e-01
v(drain) = 7.500000e-01
v(gate) = 0.000000e+00
v(source) = 4.500000e-01
v(body) = 0.000000e+00
i(vd) = -4.23639e-12
i(vg) = 5.091427e-12
i(vs) = -8.55056e-13
i(vb) = 1.608512e-17
Doing analysis at TEMP = 25.000000 and TNOM = 27.000000


No. of Data Rows : 1
abs(v(alim)) = 4.500000e-01
v(drain) = 8.000000e-01
v(gate) = 0.000000e+00
v(source) = 4.500000e-01
v(body) = 0.000000e+00
i(vd) = -5.34823e-12
i(vg) = 6.203266e-12
i(vs) = -8.55053e-13
i(vb) = 1.608562e-17
Doing analysis at TEMP = 25.000000 and TNOM = 27.000000


No. of Data Rows : 1
abs(v(alim)) = 4.500000e-01
v(drain) = 8.500000e-01
v(gate) = 0.000000e+00
v(source) = 4.500000e-01
v(body) = 0.000000e+00
i(vd) = -6.70745e-12
i(vg) = 7.562484e-12
i(vs) = -8.55049e-13
i(vb) = 1.608612e-17
Doing analysis at TEMP = 25.000000 and TNOM = 27.000000


No. of Data Rows : 1
abs(v(alim)) = 4.500000e-01
v(drain) = 9.000000e-01
v(gate) = 0.000000e+00
v(source) = 4.500000e-01
v(body) = 0.000000e+00
i(vd) = -8.36270e-12
i(vg) = 9.217723e-12
i(vs) = -8.55044e-13
i(vb) = 1.608662e-17
Doing analysis at TEMP = 25.000000 and TNOM = 27.000000


No. of Data Rows : 1
abs(v(alim)) = 4.500000e-01
v(drain) = 9.500000e-01
v(gate) = 0.000000e+00
v(source) = 4.500000e-01
v(body) = 0.000000e+00
i(vd) = -1.03714e-11
i(vg) = 1.122642e-11
i(vs) = -8.55038e-13
i(vb) = 1.608712e-17
Doing analysis at TEMP = 25.000000 and TNOM = 27.000000


No. of Data Rows : 1
abs(v(alim)) = 4.500000e-01
v(drain) = 1.000000e+00
v(gate) = 0.000000e+00
v(source) = 4.500000e-01
v(body) = 0.000000e+00
i(vd) = -1.28013e-11
i(vg) = 1.365628e-11
i(vs) = -8.55031e-13
i(vb) = 1.609524e-17
Doing analysis at TEMP = 25.000000 and TNOM = 27.000000


No. of Data Rows : 1
abs(v(alim)) = 4.500000e-01
v(drain) = 1.050000e+00
v(gate) = 0.000000e+00
v(source) = 4.500000e-01
v(body) = 0.000000e+00
i(vd) = -1.57321e-11
i(vg) = 1.658706e-11
i(vs) = -8.55022e-13
i(vb) = 4.113941e-17
Doing analysis at TEMP = 25.000000 and TNOM = 27.000000


No. of Data Rows : 1
abs(v(alim)) = 4.500000e-01
v(drain) = 1.100000e+00
v(gate) = 0.000000e+00
v(source) = 4.500000e-01
v(body) = 0.000000e+00
i(vd) = -1.92633e-11
i(vg) = 2.011255e-11
i(vs) = -8.55011e-13
i(vb) = 5.744934e-15
Doing analysis at TEMP = 25.000000 and TNOM = 27.000000


No. of Data Rows : 1
abs(v(alim)) = 5.000000e-01
v(drain) = 0.000000e+00
v(gate) = 0.000000e+00
v(source) = 5.000000e-01
v(body) = 0.000000e+00
i(vd) = 2.511544e-10
i(vg) = 1.153014e-12
i(vs) = -2.52307e-10
i(vb) = 8.899307e-18
Doing analysis at TEMP = 25.000000 and TNOM = 27.000000


No. of Data Rows : 1
abs(v(alim)) = 5.000000e-01
v(drain) = 5.000000e-02
v(gate) = 0.000000e+00
v(source) = 5.000000e-01
v(body) = 0.000000e+00
i(vd) = 3.768352e-11
i(vg) = 1.166113e-12
i(vs) = -3.88497e-11
i(vb) = 1.507196e-17
Doing analysis at TEMP = 25.000000 and TNOM = 27.000000


No. of Data Rows : 1
abs(v(alim)) = 5.000000e-01
v(drain) = 1.000000e-01
v(gate) = 0.000000e+00
v(source) = 5.000000e-01
v(body) = 0.000000e+00
i(vd) = 5.500474e-12
i(vg) = 1.189351e-12
i(vs) = -6.68984e-12
i(vb) = 1.595553e-17
Doing analysis at TEMP = 25.000000 and TNOM = 27.000000


No. of Data Rows : 1
abs(v(alim)) = 5.000000e-01
v(drain) = 1.500000e-01
v(gate) = 0.000000e+00
v(source) = 5.000000e-01
v(body) = 0.000000e+00
i(vd) = 7.264743e-13
i(vg) = 1.225852e-12
i(vs) = -1.95234e-12
i(vb) = 1.607938e-17
Doing analysis at TEMP = 25.000000 and TNOM = 27.000000


No. of Data Rows : 1
abs(v(alim)) = 5.000000e-01
v(drain) = 2.000000e-01
v(gate) = 0.000000e+00
v(source) = 5.000000e-01
v(body) = 0.000000e+00
i(vd) = -1.27456e-14
i(vg) = 1.279451e-12
i(vs) = -1.26672e-12
i(vb) = 1.609404e-17
Doing analysis at TEMP = 25.000000 and TNOM = 27.000000


No. of Data Rows : 1
abs(v(alim)) = 5.000000e-01
v(drain) = 2.500000e-01
v(gate) = 0.000000e+00
v(source) = 5.000000e-01
v(body) = 0.000000e+00
i(vd) = -1.85872e-13
i(vg) = 1.354837e-12
i(vs) = -1.16898e-12
i(vb) = 1.609322e-17
Doing analysis at TEMP = 25.000000 and TNOM = 27.000000


No. of Data Rows : 1
abs(v(alim)) = 5.000000e-01
v(drain) = 3.000000e-01
v(gate) = 0.000000e+00
v(source) = 5.000000e-01
v(body) = 0.000000e+00
i(vd) = -3.02501e-13
i(vg) = 1.457719e-12
i(vs) = -1.15523e-12
i(vb) = 1.609045e-17
Doing analysis at TEMP = 25.000000 and TNOM = 27.000000


No. of Data Rows : 1
abs(v(alim)) = 5.000000e-01
v(drain) = 3.500000e-01
v(gate) = 0.000000e+00
v(source) = 5.000000e-01
v(body) = 0.000000e+00
i(vd) = -4.41713e-13
i(vg) = 1.595022e-12
i(vs) = -1.15332e-12
i(vb) = 1.608763e-17
Doing analysis at TEMP = 25.000000 and TNOM = 27.000000


No. of Data Rows : 1
abs(v(alim)) = 5.000000e-01
v(drain) = 4.000000e-01
v(gate) = 0.000000e+00
v(source) = 5.000000e-01
v(body) = 0.000000e+00
i(vd) = -6.22067e-13
i(vg) = 1.775113e-12
i(vs) = -1.15306e-12
i(vb) = 1.608502e-17
Doing analysis at TEMP = 25.000000 and TNOM = 27.000000


No. of Data Rows : 1
abs(v(alim)) = 5.000000e-01
v(drain) = 4.500000e-01
v(gate) = 0.000000e+00
v(source) = 5.000000e-01
v(body) = 0.000000e+00
i(vd) = -8.55066e-13
i(vg) = 2.008077e-12
i(vs) = -1.15303e-12
i(vb) = 1.608262e-17
Doing analysis at TEMP = 25.000000 and TNOM = 27.000000


No. of Data Rows : 1
abs(v(alim)) = 5.000000e-01
v(drain) = 5.000000e-01
v(gate) = 0.000000e+00
v(source) = 5.000000e-01
v(body) = 0.000000e+00
i(vd) = -1.15302e-12
i(vg) = 2.306028e-12
i(vs) = -1.15302e-12
i(vb) = 1.608043e-17
Doing analysis at TEMP = 25.000000 and TNOM = 27.000000


No. of Data Rows : 1
abs(v(alim)) = 5.000000e-01
v(drain) = 5.500000e-01
v(gate) = 0.000000e+00
v(source) = 5.000000e-01
v(body) = 0.000000e+00
i(vd) = -1.53048e-12
i(vg) = 2.683484e-12
i(vs) = -1.15302e-12
i(vb) = 1.608093e-17
Doing analysis at TEMP = 25.000000 and TNOM = 27.000000


No. of Data Rows : 1
abs(v(alim)) = 5.000000e-01
v(drain) = 6.000000e-01
v(gate) = 0.000000e+00
v(source) = 5.000000e-01
v(body) = 0.000000e+00
i(vd) = -2.00480e-12
i(vg) = 3.157801e-12
i(vs) = -1.15302e-12
i(vb) = 1.608143e-17
Doing analysis at TEMP = 25.000000 and TNOM = 27.000000


No. of Data Rows : 1
abs(v(alim)) = 5.000000e-01
v(drain) = 6.500000e-01
v(gate) = 0.000000e+00
v(source) = 5.000000e-01
v(body) = 0.000000e+00
i(vd) = -2.59668e-12
i(vg) = 3.749684e-12
i(vs) = -1.15302e-12
i(vb) = 1.608193e-17
Doing analysis at TEMP = 25.000000 and TNOM = 27.000000


No. of Data Rows : 1
abs(v(alim)) = 5.000000e-01
v(drain) = 7.000000e-01
v(gate) = 0.000000e+00
v(source) = 5.000000e-01
v(body) = 0.000000e+00
i(vd) = -3.33078e-12
i(vg) = 4.483780e-12
i(vs) = -1.15302e-12
i(vb) = 1.608243e-17
Doing analysis at TEMP = 25.000000 and TNOM = 27.000000


No. of Data Rows : 1
abs(v(alim)) = 5.000000e-01
v(drain) = 7.500000e-01
v(gate) = 0.000000e+00
v(source) = 5.000000e-01
v(body) = 0.000000e+00
i(vd) = -4.23637e-12
i(vg) = 5.389378e-12
i(vs) = -1.15302e-12
i(vb) = 1.608293e-17
Doing analysis at TEMP = 25.000000 and TNOM = 27.000000


No. of Data Rows : 1
abs(v(alim)) = 5.000000e-01
v(drain) = 8.000000e-01
v(gate) = 0.000000e+00
v(source) = 5.000000e-01
v(body) = 0.000000e+00
i(vd) = -5.34821e-12
i(vg) = 6.501217e-12
i(vs) = -1.15302e-12
i(vb) = 1.608343e-17
Doing analysis at TEMP = 25.000000 and TNOM = 27.000000


No. of Data Rows : 1
abs(v(alim)) = 5.000000e-01
v(drain) = 8.500000e-01
v(gate) = 0.000000e+00
v(source) = 5.000000e-01
v(body) = 0.000000e+00
i(vd) = -6.70743e-12
i(vg) = 7.860435e-12
i(vs) = -1.15302e-12
i(vb) = 1.608393e-17
Doing analysis at TEMP = 25.000000 and TNOM = 27.000000


No. of Data Rows : 1
abs(v(alim)) = 5.000000e-01
v(drain) = 9.000000e-01
v(gate) = 0.000000e+00
v(source) = 5.000000e-01
v(body) = 0.000000e+00
i(vd) = -8.36267e-12
i(vg) = 9.515674e-12
i(vs) = -1.15302e-12
i(vb) = 1.608443e-17
Doing analysis at TEMP = 25.000000 and TNOM = 27.000000


No. of Data Rows : 1
abs(v(alim)) = 5.000000e-01
v(drain) = 9.500000e-01
v(gate) = 0.000000e+00
v(source) = 5.000000e-01
v(body) = 0.000000e+00
i(vd) = -1.03714e-11
i(vg) = 1.152437e-11
i(vs) = -1.15302e-12
i(vb) = 1.608493e-17
Doing analysis at TEMP = 25.000000 and TNOM = 27.000000


No. of Data Rows : 1
abs(v(alim)) = 5.000000e-01
v(drain) = 1.000000e+00
v(gate) = 0.000000e+00
v(source) = 5.000000e-01
v(body) = 0.000000e+00
i(vd) = -1.28012e-11
i(vg) = 1.395423e-11
i(vs) = -1.15302e-12
i(vb) = 1.609305e-17
Doing analysis at TEMP = 25.000000 and TNOM = 27.000000


No. of Data Rows : 1
abs(v(alim)) = 5.000000e-01
v(drain) = 1.050000e+00
v(gate) = 0.000000e+00
v(source) = 5.000000e-01
v(body) = 0.000000e+00
i(vd) = -1.57320e-11
i(vg) = 1.688501e-11
i(vs) = -1.15302e-12
i(vb) = 4.113722e-17
Doing analysis at TEMP = 25.000000 and TNOM = 27.000000


No. of Data Rows : 1
abs(v(alim)) = 5.000000e-01
v(drain) = 1.100000e+00
v(gate) = 0.000000e+00
v(source) = 5.000000e-01
v(body) = 0.000000e+00
i(vd) = -1.92632e-11
i(vg) = 2.041050e-11
i(vs) = -1.15301e-12
i(vb) = 5.744932e-15
Doing analysis at TEMP = 25.000000 and TNOM = 27.000000


No. of Data Rows : 1
abs(v(alim)) = 5.500000e-01
v(drain) = 0.000000e+00
v(gate) = 0.000000e+00
v(source) = 5.500000e-01
v(body) = 0.000000e+00
i(vd) = 3.023665e-10
i(vg) = 1.530470e-12
i(vs) = -3.03897e-10
i(vb) = 9.180379e-18
Doing analysis at TEMP = 25.000000 and TNOM = 27.000000


No. of Data Rows : 1
abs(v(alim)) = 5.500000e-01
v(drain) = 5.000000e-02
v(gate) = 0.000000e+00
v(source) = 5.500000e-01
v(body) = 0.000000e+00
i(vd) = 4.547677e-11
i(vg) = 1.543569e-12
i(vs) = -4.70204e-11
i(vb) = 1.511213e-17
Doing analysis at TEMP = 25.000000 and TNOM = 27.000000


No. of Data Rows : 1
abs(v(alim)) = 5.500000e-01
v(drain) = 1.000000e-01
v(gate) = 0.000000e+00
v(source) = 5.500000e-01
v(body) = 0.000000e+00
i(vd) = 6.657903e-12
i(vg) = 1.566807e-12
i(vs) = -8.22473e-12
i(vb) = 1.596148e-17
Doing analysis at TEMP = 25.000000 and TNOM = 27.000000


No. of Data Rows : 1
abs(v(alim)) = 5.500000e-01
v(drain) = 1.500000e-01
v(gate) = 0.000000e+00
v(source) = 5.500000e-01
v(body) = 0.000000e+00
i(vd) = 8.952519e-13
i(vg) = 1.603308e-12
i(vs) = -2.49858e-12
i(vb) = 1.608061e-17
Doing analysis at TEMP = 25.000000 and TNOM = 27.000000


No. of Data Rows : 1
abs(v(alim)) = 5.500000e-01
v(drain) = 2.000000e-01
v(gate) = 0.000000e+00
v(source) = 5.500000e-01
v(body) = 0.000000e+00
i(vd) = 1.150310e-14
i(vg) = 1.656906e-12
i(vs) = -1.66843e-12
i(vb) = 1.609463e-17
Doing analysis at TEMP = 25.000000 and TNOM = 27.000000


No. of Data Rows : 1
abs(v(alim)) = 5.500000e-01
v(drain) = 2.500000e-01
v(gate) = 0.000000e+00
v(source) = 5.500000e-01
v(body) = 0.000000e+00
i(vd) = -1.82431e-13
i(vg) = 1.732292e-12
i(vs) = -1.54988e-12
i(vb) = 1.609373e-17
Doing analysis at TEMP = 25.000000 and TNOM = 27.000000


No. of Data Rows : 1
abs(v(alim)) = 5.500000e-01
v(drain) = 3.000000e-01
v(gate) = 0.000000e+00
v(source) = 5.500000e-01
v(body) = 0.000000e+00
i(vd) = -3.02018e-13
i(vg) = 1.835175e-12
i(vs) = -1.53317e-12
i(vb) = 1.609095e-17
Doing analysis at TEMP = 25.000000 and TNOM = 27.000000


No. of Data Rows : 1
abs(v(alim)) = 5.500000e-01
v(drain) = 3.500000e-01
v(gate) = 0.000000e+00
v(source) = 5.500000e-01
v(body) = 0.000000e+00
i(vd) = -4.41646e-13
i(vg) = 1.972478e-12
i(vs) = -1.53085e-12
i(vb) = 1.608813e-17
Doing analysis at TEMP = 25.000000 and TNOM = 27.000000


No. of Data Rows : 1
abs(v(alim)) = 5.500000e-01
v(drain) = 4.000000e-01
v(gate) = 0.000000e+00
v(source) = 5.500000e-01
v(body) = 0.000000e+00
i(vd) = -6.22057e-13
i(vg) = 2.152569e-12
i(vs) = -1.53053e-12
i(vb) = 1.608552e-17
Doing analysis at TEMP = 25.000000 and TNOM = 27.000000


No. of Data Rows : 1
abs(v(alim)) = 5.500000e-01
v(drain) = 4.500000e-01
v(gate) = 0.000000e+00
v(source) = 5.500000e-01
v(body) = 0.000000e+00
i(vd) = -8.55065e-13
i(vg) = 2.385533e-12
i(vs) = -1.53048e-12
i(vb) = 1.608312e-17
Doing analysis at TEMP = 25.000000 and TNOM = 27.000000


No. of Data Rows : 1
abs(v(alim)) = 5.500000e-01
v(drain) = 5.000000e-01
v(gate) = 0.000000e+00
v(source) = 5.500000e-01
v(body) = 0.000000e+00
i(vd) = -1.15302e-12
i(vg) = 2.683484e-12
i(vs) = -1.53048e-12
i(vb) = 1.608093e-17
Doing analysis at TEMP = 25.000000 and TNOM = 27.000000


No. of Data Rows : 1
abs(v(alim)) = 5.500000e-01
v(drain) = 5.500000e-01
v(gate) = 0.000000e+00
v(source) = 5.500000e-01
v(body) = 0.000000e+00
i(vd) = -1.53048e-12
i(vg) = 3.060940e-12
i(vs) = -1.53048e-12
i(vb) = 1.607892e-17
Doing analysis at TEMP = 25.000000 and TNOM = 27.000000


No. of Data Rows : 1
abs(v(alim)) = 5.500000e-01
v(drain) = 6.000000e-01
v(gate) = 0.000000e+00
v(source) = 5.500000e-01
v(body) = 0.000000e+00
i(vd) = -2.00480e-12
i(vg) = 3.535257e-12
i(vs) = -1.53048e-12
i(vb) = 1.607942e-17
Doing analysis at TEMP = 25.000000 and TNOM = 27.000000


No. of Data Rows : 1
abs(v(alim)) = 5.500000e-01
v(drain) = 6.500000e-01
v(gate) = 0.000000e+00
v(source) = 5.500000e-01
v(body) = 0.000000e+00
i(vd) = -2.59668e-12
i(vg) = 4.127140e-12
i(vs) = -1.53048e-12
i(vb) = 1.607992e-17
Doing analysis at TEMP = 25.000000 and TNOM = 27.000000


No. of Data Rows : 1
abs(v(alim)) = 5.500000e-01
v(drain) = 7.000000e-01
v(gate) = 0.000000e+00
v(source) = 5.500000e-01
v(body) = 0.000000e+00
i(vd) = -3.33077e-12
i(vg) = 4.861236e-12
i(vs) = -1.53048e-12
i(vb) = 1.608042e-17
Doing analysis at TEMP = 25.000000 and TNOM = 27.000000


No. of Data Rows : 1
abs(v(alim)) = 5.500000e-01
v(drain) = 7.500000e-01
v(gate) = 0.000000e+00
v(source) = 5.500000e-01
v(body) = 0.000000e+00
i(vd) = -4.23637e-12
i(vg) = 5.766834e-12
i(vs) = -1.53048e-12
i(vb) = 1.608092e-17
Doing analysis at TEMP = 25.000000 and TNOM = 27.000000


No. of Data Rows : 1
abs(v(alim)) = 5.500000e-01
v(drain) = 8.000000e-01
v(gate) = 0.000000e+00
v(source) = 5.500000e-01
v(body) = 0.000000e+00
i(vd) = -5.34821e-12
i(vg) = 6.878673e-12
i(vs) = -1.53048e-12
i(vb) = 1.608142e-17
Doing analysis at TEMP = 25.000000 and TNOM = 27.000000


No. of Data Rows : 1
abs(v(alim)) = 5.500000e-01
v(drain) = 8.500000e-01
v(gate) = 0.000000e+00
v(source) = 5.500000e-01
v(body) = 0.000000e+00
i(vd) = -6.70743e-12
i(vg) = 8.237890e-12
i(vs) = -1.53048e-12
i(vb) = 1.608192e-17
Doing analysis at TEMP = 25.000000 and TNOM = 27.000000


No. of Data Rows : 1
abs(v(alim)) = 5.500000e-01
v(drain) = 9.000000e-01
v(gate) = 0.000000e+00
v(source) = 5.500000e-01
v(body) = 0.000000e+00
i(vd) = -8.36267e-12
i(vg) = 9.893130e-12
i(vs) = -1.53048e-12
i(vb) = 1.608242e-17
Doing analysis at TEMP = 25.000000 and TNOM = 27.000000


No. of Data Rows : 1
abs(v(alim)) = 5.500000e-01
v(drain) = 9.500000e-01
v(gate) = 0.000000e+00
v(source) = 5.500000e-01
v(body) = 0.000000e+00
i(vd) = -1.03714e-11
i(vg) = 1.190182e-11
i(vs) = -1.53048e-12
i(vb) = 1.608292e-17
Doing analysis at TEMP = 25.000000 and TNOM = 27.000000


No. of Data Rows : 1
abs(v(alim)) = 5.500000e-01
v(drain) = 1.000000e+00
v(gate) = 0.000000e+00
v(source) = 5.500000e-01
v(body) = 0.000000e+00
i(vd) = -1.28012e-11
i(vg) = 1.433169e-11
i(vs) = -1.53048e-12
i(vb) = 1.609103e-17
Doing analysis at TEMP = 25.000000 and TNOM = 27.000000


No. of Data Rows : 1
abs(v(alim)) = 5.500000e-01
v(drain) = 1.050000e+00
v(gate) = 0.000000e+00
v(source) = 5.500000e-01
v(body) = 0.000000e+00
i(vd) = -1.57320e-11
i(vg) = 1.726247e-11
i(vs) = -1.53048e-12
i(vb) = 4.113520e-17
Doing analysis at TEMP = 25.000000 and TNOM = 27.000000


No. of Data Rows : 1
abs(v(alim)) = 5.500000e-01
v(drain) = 1.100000e+00
v(gate) = 0.000000e+00
v(source) = 5.500000e-01
v(body) = 0.000000e+00
i(vd) = -1.92632e-11
i(vg) = 2.078796e-11
i(vs) = -1.53048e-12
i(vb) = 5.744930e-15
Doing analysis at TEMP = 25.000000 and TNOM = 27.000000


No. of Data Rows : 1
abs(v(alim)) = 6.000000e-01
v(drain) = 0.000000e+00
v(gate) = 0.000000e+00
v(source) = 6.000000e-01
v(body) = 0.000000e+00
i(vd) = 3.639316e-10
i(vg) = 2.004787e-12
i(vs) = -3.65936e-10
i(vb) = 9.540603e-18
Doing analysis at TEMP = 25.000000 and TNOM = 27.000000


No. of Data Rows : 1
abs(v(alim)) = 6.000000e-01
v(drain) = 5.000000e-02
v(gate) = 0.000000e+00
v(source) = 6.000000e-01
v(body) = 0.000000e+00
i(vd) = 5.486786e-11
i(vg) = 2.017886e-12
i(vs) = -5.68858e-11
i(vb) = 1.516387e-17
[...]


No. of Data Rows : 1
abs(v(alim)) = 9.500000e-01
v(drain) = 1.100000e+00
v(gate) = 1.100000e+00
v(source) = 9.500000e-01
v(body) = 0.000000e+00
i(vd) = -1.56496e-11
i(vg) = -4.88498e-15
i(vs) = 1.565134e-11
i(vb) = 3.219646e-15
Doing analysis at TEMP = 25.000000 and TNOM = 27.000000


No. of Data Rows : 1
abs(v(alim)) = 1.000000e+00
v(drain) = 0.000000e+00
v(gate) = 1.100000e+00
v(source) = 1.000000e+00
v(body) = 0.000000e+00
i(vd) = 1.301421e-04
i(vg) = -2.16637e-10
i(vs) = -1.30142e-04
i(vb) = 1.841192e-10
Doing analysis at TEMP = 25.000000 and TNOM = 27.000000


No. of Data Rows : 1
abs(v(alim)) = 1.000000e+00
v(drain) = 5.000000e-02
v(gate) = 1.100000e+00
v(source) = 1.000000e+00
v(body) = 0.000000e+00
i(vd) = 1.177242e-04
i(vg) = -1.09432e-10
i(vs) = -1.17724e-04
i(vb) = 8.375510e-11
Doing analysis at TEMP = 25.000000 and TNOM = 27.000000


No. of Data Rows : 1
abs(v(alim)) = 1.000000e+00
v(drain) = 1.000000e-01
v(gate) = 1.100000e+00
v(source) = 1.000000e+00
v(body) = 0.000000e+00
i(vd) = 1.053832e-04
i(vg) = -5.57012e-11
i(vs) = -1.05383e-04
i(vb) = 3.560569e-11
Doing analysis at TEMP = 25.000000 and TNOM = 27.000000


No. of Data Rows : 1
abs(v(alim)) = 1.000000e+00
v(drain) = 1.500000e-01
v(gate) = 1.100000e+00
v(source) = 1.000000e+00
v(body) = 0.000000e+00
i(vd) = 9.312590e-05
i(vg) = -3.00484e-11
i(vs) = -9.31259e-05
i(vb) = 1.448239e-11
Doing analysis at TEMP = 25.000000 and TNOM = 27.000000


No. of Data Rows : 1
abs(v(alim)) = 1.000000e+00
v(drain) = 2.000000e-01
v(gate) = 1.100000e+00
v(source) = 1.000000e+00
v(body) = 0.000000e+00
i(vd) = 8.096164e-05
i(vg) = -1.77018e-11
i(vs) = -8.09616e-05
i(vb) = 5.787616e-12
Doing analysis at TEMP = 25.000000 and TNOM = 27.000000


No. of Data Rows : 1
abs(v(alim)) = 1.000000e+00
v(drain) = 2.500000e-01
v(gate) = 1.100000e+00
v(source) = 1.000000e+00
v(body) = 0.000000e+00
i(vd) = 6.890392e-05
i(vg) = -1.13252e-11
i(vs) = -6.89039e-05
i(vb) = 2.336141e-12
Doing analysis at TEMP = 25.000000 and TNOM = 27.000000


No. of Data Rows : 1
abs(v(alim)) = 1.000000e+00
v(drain) = 3.000000e-01
v(gate) = 1.100000e+00
v(source) = 1.000000e+00
v(body) = 0.000000e+00
i(vd) = 5.697611e-05
i(vg) = -7.64810e-12
i(vs) = -5.69761e-05
i(vb) = 9.818727e-13
Doing analysis at TEMP = 25.000000 and TNOM = 27.000000


No. of Data Rows : 1
abs(v(alim)) = 1.000000e+00
v(drain) = 3.500000e-01
v(gate) = 1.100000e+00
v(source) = 1.000000e+00
v(body) = 0.000000e+00
i(vd) = 4.522721e-05
i(vg) = -5.28200e-12
i(vs) = -4.52272e-05
i(vb) = 4.425130e-13
Doing analysis at TEMP = 25.000000 and TNOM = 27.000000


No. of Data Rows : 1
abs(v(alim)) = 1.000000e+00
v(drain) = 4.000000e-01
v(gate) = 1.100000e+00
v(source) = 1.000000e+00
v(body) = 0.000000e+00
i(vd) = 3.377510e-05
i(vg) = -3.63531e-12
i(vs) = -3.37751e-05
i(vb) = 2.160844e-13
Doing analysis at TEMP = 25.000000 and TNOM = 27.000000


No. of Data Rows : 1
abs(v(alim)) = 1.000000e+00
v(drain) = 4.500000e-01
v(gate) = 1.100000e+00
v(source) = 1.000000e+00
v(body) = 0.000000e+00
i(vd) = 2.291457e-05
i(vg) = -2.44382e-12
i(vs) = -2.29146e-05
i(vb) = 1.107352e-13
Doing analysis at TEMP = 25.000000 and TNOM = 27.000000


No. of Data Rows : 1
abs(v(alim)) = 1.000000e+00
v(drain) = 5.000000e-01
v(gate) = 1.100000e+00
v(source) = 1.000000e+00
v(body) = 0.000000e+00
i(vd) = 1.331670e-05
i(vg) = -1.57119e-12
i(vs) = -1.33167e-05
i(vb) = 5.510932e-14
Doing analysis at TEMP = 25.000000 and TNOM = 27.000000


No. of Data Rows : 1
abs(v(alim)) = 1.000000e+00
v(drain) = 5.500000e-01
v(gate) = 1.100000e+00
v(source) = 1.000000e+00
v(body) = 0.000000e+00
i(vd) = 6.105339e-06
i(vg) = -9.38805e-13
i(vs) = -6.10534e-06
i(vb) = 2.442551e-14
Doing analysis at TEMP = 25.000000 and TNOM = 27.000000


No. of Data Rows : 1
abs(v(alim)) = 1.000000e+00
v(drain) = 6.000000e-01
v(gate) = 1.100000e+00
v(source) = 1.000000e+00
v(body) = 0.000000e+00
i(vd) = 2.079853e-06
i(vg) = -5.00044e-13
i(vs) = -2.07985e-06
i(vb) = 9.878941e-15
Doing analysis at TEMP = 25.000000 and TNOM = 27.000000


No. of Data Rows : 1
abs(v(alim)) = 1.000000e+00
v(drain) = 6.500000e-01
v(gate) = 1.100000e+00
v(source) = 1.000000e+00
v(body) = 0.000000e+00
i(vd) = 5.418570e-07
i(vg) = -2.51354e-13
i(vs) = -5.41857e-07
i(vb) = 4.817754e-15
Doing analysis at TEMP = 25.000000 and TNOM = 27.000000


No. of Data Rows : 1
abs(v(alim)) = 1.000000e+00
v(drain) = 7.000000e-01
v(gate) = 1.100000e+00
v(source) = 1.000000e+00
v(body) = 0.000000e+00
i(vd) = 1.148212e-07
i(vg) = -1.42997e-13
i(vs) = -1.14821e-07
i(vb) = 3.525025e-15
Doing analysis at TEMP = 25.000000 and TNOM = 27.000000


No. of Data Rows : 1
abs(v(alim)) = 1.000000e+00
v(drain) = 7.500000e-01
v(gate) = 1.100000e+00
v(source) = 1.000000e+00
v(body) = 0.000000e+00
i(vd) = 2.061719e-08
i(vg) = -8.79297e-14
i(vs) = -2.06171e-08
i(vb) = 3.268325e-15
Doing analysis at TEMP = 25.000000 and TNOM = 27.000000


No. of Data Rows : 1
abs(v(alim)) = 1.000000e+00
v(drain) = 8.000000e-01
v(gate) = 1.100000e+00
v(source) = 1.000000e+00
v(body) = 0.000000e+00
i(vd) = 3.304924e-09
i(vg) = -5.32907e-14
i(vs) = -3.30487e-09
i(vb) = 3.226746e-15
Doing analysis at TEMP = 25.000000 and TNOM = 27.000000


No. of Data Rows : 1
abs(v(alim)) = 1.000000e+00
v(drain) = 8.500000e-01
v(gate) = 1.100000e+00
v(source) = 1.000000e+00
v(body) = 0.000000e+00
i(vd) = 4.959884e-10
i(vg) = -3.01981e-14
i(vs) = -4.95962e-10
i(vb) = 3.220792e-15
Doing analysis at TEMP = 25.000000 and TNOM = 27.000000


No. of Data Rows : 1
abs(v(alim)) = 1.000000e+00
v(drain) = 9.000000e-01
v(gate) = 1.100000e+00
v(source) = 1.000000e+00
v(body) = 0.000000e+00
i(vd) = 7.124401e-11
i(vg) = -1.55431e-14
i(vs) = -7.12318e-11
i(vb) = 3.219884e-15
Doing analysis at TEMP = 25.000000 and TNOM = 27.000000


No. of Data Rows : 1
abs(v(alim)) = 1.000000e+00
v(drain) = 9.500000e-01
v(gate) = 1.100000e+00
v(source) = 1.000000e+00
v(body) = 0.000000e+00
i(vd) = 9.274723e-12
i(vg) = -1.06581e-14
i(vs) = -9.26757e-12
i(vb) = 3.219630e-15
Doing analysis at TEMP = 25.000000 and TNOM = 27.000000


No. of Data Rows : 1
abs(v(alim)) = 1.000000e+00
v(drain) = 1.000000e+00
v(gate) = 1.100000e+00
v(source) = 1.000000e+00
v(body) = 0.000000e+00
i(vd) = 5.417171e-15
i(vg) = -1.37668e-14
i(vs) = 5.417171e-15
i(vb) = 3.219460e-15
Doing analysis at TEMP = 25.000000 and TNOM = 27.000000


No. of Data Rows : 1
abs(v(alim)) = 1.000000e+00
v(drain) = 1.050000e+00
v(gate) = 1.100000e+00
v(source) = 1.000000e+00
v(body) = 0.000000e+00
i(vd) = -1.60857e-12
i(vg) = -1.42109e-14
i(vs) = 1.619466e-12
i(vb) = 3.219461e-15
Doing analysis at TEMP = 25.000000 and TNOM = 27.000000


No. of Data Rows : 1
abs(v(alim)) = 1.000000e+00
v(drain) = 1.100000e+00
v(gate) = 1.100000e+00
v(source) = 1.000000e+00
v(body) = 0.000000e+00
i(vd) = -2.18424e-12
i(vg) = -8.88178e-15
i(vs) = 2.189647e-12
i(vb) = 3.219463e-15
Doing analysis at TEMP = 25.000000 and TNOM = 27.000000


No. of Data Rows : 1
abs(v(alim)) = 1.050000e+00
v(drain) = 0.000000e+00
v(gate) = 1.100000e+00
v(source) = 1.050000e+00
v(body) = 0.000000e+00
i(vd) = 1.318241e-04
i(vg) = -2.30420e-10
i(vs) = -1.31824e-04
i(vb) = 1.976806e-10
Doing analysis at TEMP = 25.000000 and TNOM = 27.000000


No. of Data Rows : 1
abs(v(alim)) = 1.050000e+00
v(drain) = 5.000000e-02
v(gate) = 1.100000e+00
v(source) = 1.050000e+00
v(body) = 0.000000e+00
i(vd) = 1.193719e-04
i(vg) = -1.16487e-10
i(vs) = -1.19372e-04
i(vb) = 9.063918e-11
Doing analysis at TEMP = 25.000000 and TNOM = 27.000000


No. of Data Rows : 1
abs(v(alim)) = 1.050000e+00
v(drain) = 1.000000e-01
v(gate) = 1.100000e+00
v(source) = 1.050000e+00
v(body) = 0.000000e+00
i(vd) = 1.069957e-04
i(vg) = -5.90017e-11
i(vs) = -1.06996e-04
i(vb) = 3.877871e-11
Doing analysis at TEMP = 25.000000 and TNOM = 27.000000


No. of Data Rows : 1
abs(v(alim)) = 1.050000e+00
v(drain) = 1.500000e-01
v(gate) = 1.100000e+00
v(source) = 1.050000e+00
v(body) = 0.000000e+00
i(vd) = 9.470203e-05
i(vg) = -3.15050e-11
i(vs) = -9.47020e-05
i(vb) = 1.584453e-11
Doing analysis at TEMP = 25.000000 and TNOM = 27.000000


No. of Data Rows : 1
abs(v(alim)) = 1.050000e+00
v(drain) = 2.000000e-01
v(gate) = 1.100000e+00
v(source) = 1.050000e+00
v(body) = 0.000000e+00
i(vd) = 8.249918e-05
i(vg) = -1.83333e-11
i(vs) = -8.24992e-05
i(vb) = 6.352514e-12
Doing analysis at TEMP = 25.000000 and TNOM = 27.000000


No. of Data Rows : 1
abs(v(alim)) = 1.050000e+00
v(drain) = 2.500000e-01
v(gate) = 1.100000e+00
v(source) = 1.050000e+00
v(body) = 0.000000e+00
i(vd) = 7.039955e-05
i(vg) = -1.16076e-11
i(vs) = -7.03995e-05
i(vb) = 2.571879e-12
Doing analysis at TEMP = 25.000000 and TNOM = 27.000000


No. of Data Rows : 1
abs(v(alim)) = 1.050000e+00
v(drain) = 3.000000e-01
v(gate) = 1.100000e+00
v(source) = 1.050000e+00
v(body) = 0.000000e+00
i(vd) = 5.842448e-05
i(vg) = -7.78266e-12
i(vs) = -5.84245e-05
i(vb) = 1.085460e-12
Doing analysis at TEMP = 25.000000 and TNOM = 27.000000


No. of Data Rows : 1
abs(v(alim)) = 1.050000e+00
v(drain) = 3.500000e-01
v(gate) = 1.100000e+00
v(source) = 1.050000e+00
v(body) = 0.000000e+00
i(vd) = 4.661841e-05
i(vg) = -5.35172e-12
i(vs) = -4.66184e-05
i(vb) = 4.925911e-13
Doing analysis at TEMP = 25.000000 and TNOM = 27.000000


No. of Data Rows : 1
abs(v(alim)) = 1.050000e+00
v(drain) = 4.000000e-01
v(gate) = 1.100000e+00
v(source) = 1.050000e+00
v(body) = 0.000000e+00
i(vd) = 3.508823e-05
i(vg) = -3.67439e-12
i(vs) = -3.50882e-05
i(vb) = 2.431809e-13
Doing analysis at TEMP = 25.000000 and TNOM = 27.000000


No. of Data Rows : 1
abs(v(alim)) = 1.050000e+00
v(drain) = 4.500000e-01
v(gate) = 1.100000e+00
v(source) = 1.050000e+00
v(body) = 0.000000e+00
i(vd) = 2.410300e-05
i(vg) = -2.46514e-12
i(vs) = -2.41030e-05
i(vb) = 1.265635e-13
Doing analysis at TEMP = 25.000000 and TNOM = 27.000000


No. of Data Rows : 1
abs(v(alim)) = 1.050000e+00
v(drain) = 5.000000e-01
v(gate) = 1.100000e+00
v(source) = 1.050000e+00
v(body) = 0.000000e+00
i(vd) = 1.428770e-05
i(vg) = -1.58229e-12
i(vs) = -1.42877e-05
i(vb) = 6.424168e-14
Doing analysis at TEMP = 25.000000 and TNOM = 27.000000


No. of Data Rows : 1
abs(v(alim)) = 1.050000e+00
v(drain) = 5.500000e-01
v(gate) = 1.100000e+00
v(source) = 1.050000e+00
v(body) = 0.000000e+00
i(vd) = 6.740864e-06
i(vg) = -9.43690e-13
i(vs) = -6.74086e-06
i(vb) = 2.899814e-14
Doing analysis at TEMP = 25.000000 and TNOM = 27.000000


No. of Data Rows : 1
abs(v(alim)) = 1.050000e+00
v(drain) = 6.000000e-01
v(gate) = 1.100000e+00
v(source) = 1.050000e+00
v(body) = 0.000000e+00
i(vd) = 2.369655e-06
i(vg) = -5.01821e-13
i(vs) = -2.36965e-06
i(vb) = 1.161784e-14
Doing analysis at TEMP = 25.000000 and TNOM = 27.000000


No. of Data Rows : 1
abs(v(alim)) = 1.050000e+00
v(drain) = 6.500000e-01
v(gate) = 1.100000e+00
v(source) = 1.050000e+00
v(body) = 0.000000e+00
i(vd) = 6.329352e-07
i(vg) = -2.51799e-13
i(vs) = -6.32935e-07
i(vb) = 5.303412e-15
Doing analysis at TEMP = 25.000000 and TNOM = 27.000000


No. of Data Rows : 1
abs(v(alim)) = 1.050000e+00
v(drain) = 7.000000e-01
v(gate) = 1.100000e+00
v(source) = 1.050000e+00
v(body) = 0.000000e+00
i(vd) = 1.367636e-07
i(vg) = -1.42997e-13
i(vs) = -1.36763e-07
i(vb) = 3.630523e-15
Doing analysis at TEMP = 25.000000 and TNOM = 27.000000


No. of Data Rows : 1
abs(v(alim)) = 1.050000e+00
v(drain) = 7.500000e-01
v(gate) = 1.100000e+00
v(source) = 1.050000e+00
v(body) = 0.000000e+00
i(vd) = 2.492726e-08
i(vg) = -8.79297e-14
i(vs) = -2.49272e-08
i(vb) = 3.286978e-15
Doing analysis at TEMP = 25.000000 and TNOM = 27.000000


No. of Data Rows : 1
abs(v(alim)) = 1.050000e+00
v(drain) = 8.000000e-01
v(gate) = 1.100000e+00
v(source) = 1.050000e+00
v(body) = 0.000000e+00
i(vd) = 4.035386e-09
i(vg) = -5.32907e-14
i(vs) = -4.03534e-09
i(vb) = 3.229590e-15
Doing analysis at TEMP = 25.000000 and TNOM = 27.000000


No. of Data Rows : 1
abs(v(alim)) = 1.050000e+00
v(drain) = 8.500000e-01
v(gate) = 1.100000e+00
v(source) = 1.050000e+00
v(body) = 0.000000e+00
i(vd) = 6.102263e-10
i(vg) = -2.97540e-14
i(vs) = -6.10200e-10
i(vb) = 3.221189e-15
Doing analysis at TEMP = 25.000000 and TNOM = 27.000000


No. of Data Rows : 1
abs(v(alim)) = 1.050000e+00
v(drain) = 9.000000e-01
v(gate) = 1.100000e+00
v(source) = 1.050000e+00
v(body) = 0.000000e+00
i(vd) = 8.881417e-11
i(vg) = -1.55431e-14
i(vs) = -8.88019e-11
i(vb) = 3.219937e-15
Doing analysis at TEMP = 25.000000 and TNOM = 27.000000


No. of Data Rows : 1
abs(v(alim)) = 1.050000e+00
v(drain) = 9.500000e-01
v(gate) = 1.100000e+00
v(source) = 1.050000e+00
v(body) = 0.000000e+00
i(vd) = 1.254008e-11
i(vg) = -1.06581e-14
i(vs) = -1.25329e-11
i(vb) = 3.219637e-15
Doing analysis at TEMP = 25.000000 and TNOM = 27.000000


No. of Data Rows : 1
abs(v(alim)) = 1.050000e+00
v(drain) = 1.000000e+00
v(gate) = 1.100000e+00
v(source) = 1.050000e+00
v(body) = 0.000000e+00
i(vd) = 1.619466e-12
i(vg) = -1.42109e-14
i(vs) = -1.60857e-12
i(vb) = 3.219461e-15
Doing analysis at TEMP = 25.000000 and TNOM = 27.000000


No. of Data Rows : 1
abs(v(alim)) = 1.050000e+00
v(drain) = 1.050000e+00
v(gate) = 1.100000e+00
v(source) = 1.050000e+00
v(body) = 0.000000e+00
i(vd) = 5.482650e-15
i(vg) = -1.37668e-14
i(vs) = 5.482650e-15
i(vb) = 3.219307e-15
Doing analysis at TEMP = 25.000000 and TNOM = 27.000000


No. of Data Rows : 1
abs(v(alim)) = 1.050000e+00
v(drain) = 1.100000e+00
v(gate) = 1.100000e+00
v(source) = 1.050000e+00
v(body) = 0.000000e+00
i(vd) = -2.78784e-13
i(vg) = -8.88178e-15
i(vs) = 2.842583e-13
i(vb) = 3.219307e-15
Doing analysis at TEMP = 25.000000 and TNOM = 27.000000


No. of Data Rows : 1
abs(v(alim)) = 1.100000e+00
v(drain) = 0.000000e+00
v(gate) = 1.100000e+00
v(source) = 1.100000e+00
v(body) = 0.000000e+00
i(vd) = 1.335127e-04
i(vg) = -2.45029e-10
i(vs) = -1.33513e-04
i(vb) = 2.120694e-10
Doing analysis at TEMP = 25.000000 and TNOM = 27.000000


No. of Data Rows : 1
abs(v(alim)) = 1.100000e+00
v(drain) = 5.000000e-02
v(gate) = 1.100000e+00
v(source) = 1.100000e+00
v(body) = 0.000000e+00
i(vd) = 1.210227e-04
i(vg) = -1.24031e-10
i(vs) = -1.21023e-04
i(vb) = 9.801741e-11
Doing analysis at TEMP = 25.000000 and TNOM = 27.000000


No. of Data Rows : 1
abs(v(alim)) = 1.100000e+00
v(drain) = 1.000000e-01
v(gate) = 1.100000e+00
v(source) = 1.100000e+00
v(body) = 0.000000e+00
i(vd) = 1.086092e-04
i(vg) = -6.25562e-11
i(vs) = -1.08609e-04
i(vb) = 4.220960e-11
Doing analysis at TEMP = 25.000000 and TNOM = 27.000000


No. of Data Rows : 1
abs(v(alim)) = 1.100000e+00
v(drain) = 1.500000e-01
v(gate) = 1.100000e+00
v(source) = 1.100000e+00
v(body) = 0.000000e+00
i(vd) = 9.627767e-05
i(vg) = -3.30753e-11
i(vs) = -9.62777e-05
i(vb) = 1.732605e-11
Doing analysis at TEMP = 25.000000 and TNOM = 27.000000


No. of Data Rows : 1
abs(v(alim)) = 1.100000e+00
v(drain) = 2.000000e-01
v(gate) = 1.100000e+00
v(source) = 1.100000e+00
v(body) = 0.000000e+00
i(vd) = 8.403566e-05
i(vg) = -1.90110e-11
i(vs) = -8.40356e-05
i(vb) = 6.968451e-12
Doing analysis at TEMP = 25.000000 and TNOM = 27.000000


No. of Data Rows : 1
abs(v(alim)) = 1.100000e+00
v(drain) = 2.500000e-01
v(gate) = 1.100000e+00
v(source) = 1.100000e+00
v(body) = 0.000000e+00
i(vd) = 7.189439e-05
i(vg) = -1.19056e-11
i(vs) = -7.18944e-05
i(vb) = 2.828685e-12
Doing analysis at TEMP = 25.000000 and TNOM = 27.000000


No. of Data Rows : 1
abs(v(alim)) = 1.100000e+00
v(drain) = 3.000000e-01
v(gate) = 1.100000e+00
v(source) = 1.100000e+00
v(body) = 0.000000e+00
i(vd) = 5.987326e-05
i(vg) = -7.91989e-12
i(vs) = -5.98732e-05
i(vb) = 1.197849e-12
Doing analysis at TEMP = 25.000000 and TNOM = 27.000000


No. of Data Rows : 1
abs(v(alim)) = 1.100000e+00
v(drain) = 3.500000e-01
v(gate) = 1.100000e+00
v(source) = 1.100000e+00
v(body) = 0.000000e+00
i(vd) = 4.801249e-05
i(vg) = -5.41878e-12
i(vs) = -4.80125e-05
i(vb) = 5.466263e-13
Doing analysis at TEMP = 25.000000 and TNOM = 27.000000


No. of Data Rows : 1
abs(v(alim)) = 1.100000e+00
v(drain) = 4.000000e-01
v(gate) = 1.100000e+00
v(source) = 1.100000e+00
v(body) = 0.000000e+00
i(vd) = 3.640882e-05
i(vg) = -3.70859e-12
i(vs) = -3.64088e-05
i(vb) = 2.723392e-13
Doing analysis at TEMP = 25.000000 and TNOM = 27.000000


No. of Data Rows : 1
abs(v(alim)) = 1.100000e+00
v(drain) = 4.500000e-01
v(gate) = 1.100000e+00
v(source) = 1.100000e+00
v(body) = 0.000000e+00
i(vd) = 2.530735e-05
i(vg) = -2.48157e-12
i(vs) = -2.53074e-05
i(vb) = 1.436873e-13
Doing analysis at TEMP = 25.000000 and TNOM = 27.000000


No. of Data Rows : 1
abs(v(alim)) = 1.100000e+00
v(drain) = 5.000000e-01
v(gate) = 1.100000e+00
v(source) = 1.100000e+00
v(body) = 0.000000e+00
i(vd) = 1.528803e-05
i(vg) = -1.58851e-12
i(vs) = -1.52880e-05
i(vb) = 7.429686e-14
Doing analysis at TEMP = 25.000000 and TNOM = 27.000000


No. of Data Rows : 1
abs(v(alim)) = 1.100000e+00
v(drain) = 5.500000e-01
v(gate) = 1.100000e+00
v(source) = 1.100000e+00
v(body) = 0.000000e+00
i(vd) = 7.416359e-06
i(vg) = -9.42357e-13
i(vs) = -7.41636e-06
i(vb) = 3.419894e-14
Doing analysis at TEMP = 25.000000 and TNOM = 27.000000


No. of Data Rows : 1
abs(v(alim)) = 1.100000e+00
v(drain) = 6.000000e-01
v(gate) = 1.100000e+00
v(source) = 1.100000e+00
v(body) = 0.000000e+00
i(vd) = 2.690925e-06
i(vg) = -4.97824e-13
i(vs) = -2.69092e-06
i(vb) = 1.368007e-14
Doing analysis at TEMP = 25.000000 and TNOM = 27.000000


No. of Data Rows : 1
abs(v(alim)) = 1.100000e+00
v(drain) = 6.500000e-01
v(gate) = 1.100000e+00
v(source) = 1.100000e+00
v(body) = 0.000000e+00
i(vd) = 7.374443e-07
i(vg) = -2.46025e-13
i(vs) = -7.37444e-07
i(vb) = 5.900723e-15
Doing analysis at TEMP = 25.000000 and TNOM = 27.000000


No. of Data Rows : 1
abs(v(alim)) = 1.100000e+00
v(drain) = 7.000000e-01
v(gate) = 1.100000e+00
v(source) = 1.100000e+00
v(body) = 0.000000e+00
i(vd) = 1.625433e-07
i(vg) = -1.37668e-13
i(vs) = -1.62543e-07
i(vb) = 3.764161e-15
Doing analysis at TEMP = 25.000000 and TNOM = 27.000000


No. of Data Rows : 1
abs(v(alim)) = 1.100000e+00
v(drain) = 7.500000e-01
v(gate) = 1.100000e+00
v(source) = 1.100000e+00
v(body) = 0.000000e+00
i(vd) = 3.008200e-08
i(vg) = -8.26006e-14
i(vs) = -3.00819e-08
i(vb) = 3.311210e-15
Doing analysis at TEMP = 25.000000 and TNOM = 27.000000


No. of Data Rows : 1
abs(v(alim)) = 1.100000e+00
v(drain) = 8.000000e-01
v(gate) = 1.100000e+00
v(source) = 1.100000e+00
v(body) = 0.000000e+00
i(vd) = 4.917529e-09
i(vg) = -4.75175e-14
i(vs) = -4.91748e-09
i(vb) = 3.233356e-15
Doing analysis at TEMP = 25.000000 and TNOM = 27.000000


No. of Data Rows : 1
abs(v(alim)) = 1.100000e+00
v(drain) = 8.500000e-01
v(gate) = 1.100000e+00
v(source) = 1.100000e+00
v(body) = 0.000000e+00
i(vd) = 7.481433e-10
i(vg) = -2.44249e-14
i(vs) = -7.48122e-10
i(vb) = 3.221722e-15
Doing analysis at TEMP = 25.000000 and TNOM = 27.000000


No. of Data Rows : 1
abs(v(alim)) = 1.100000e+00
v(drain) = 9.000000e-01
v(gate) = 1.100000e+00
v(source) = 1.100000e+00
v(body) = 0.000000e+00
i(vd) = 1.094992e-10
i(vg) = -1.02141e-14
i(vs) = -1.09492e-10
i(vb) = 3.220009e-15
Doing analysis at TEMP = 25.000000 and TNOM = 27.000000


No. of Data Rows : 1
abs(v(alim)) = 1.100000e+00
v(drain) = 9.500000e-01
v(gate) = 1.100000e+00
v(source) = 1.100000e+00
v(body) = 0.000000e+00
i(vd) = 1.565134e-11
i(vg) = -4.88498e-15
i(vs) = -1.56496e-11
i(vb) = 3.219646e-15
Doing analysis at TEMP = 25.000000 and TNOM = 27.000000


No. of Data Rows : 1
abs(v(alim)) = 1.100000e+00
v(drain) = 1.000000e+00
v(gate) = 1.100000e+00
v(source) = 1.100000e+00
v(body) = 0.000000e+00
i(vd) = 2.189647e-12
i(vg) = -8.88178e-15
i(vs) = -2.18424e-12
i(vb) = 3.219463e-15
Doing analysis at TEMP = 25.000000 and TNOM = 27.000000


No. of Data Rows : 1
abs(v(alim)) = 1.100000e+00
v(drain) = 1.050000e+00
v(gate) = 1.100000e+00
v(source) = 1.100000e+00
v(body) = 0.000000e+00
i(vd) = 2.842583e-13
i(vg) = -8.88178e-15
i(vs) = -2.78784e-13
i(vb) = 3.219307e-15
Doing analysis at TEMP = 25.000000 and TNOM = 27.000000


No. of Data Rows : 1
abs(v(alim)) = 1.100000e+00
v(drain) = 1.100000e+00
v(gate) = 1.100000e+00
v(source) = 1.100000e+00
v(body) = 0.000000e+00
i(vd) = -8.06632e-18
i(vg) = -2.66454e-15
i(vs) = -8.06632e-18
i(vb) = 3.219161e-15
ngspice-36 done

