******
** ngspice-36 : Circuit level simulation program
** The U. C. Berkeley CAD Group
** Copyright 1985-1994, Regents of the University of California.
** Copyright 2001-2020, The ngspice team.
** Please get your ngspice manual from http://ngspice.sourceforge.net/docs.html
** Please file your bug-reports at http://ngspice.sourceforge.net/bugrep.html
** Creation Date: Sat Jan  1 18:54:42 UTC 2022
******

No compatibility mode selected!


Circuit: *INCLUDE 45nm_HP.pm

Doing analysis at TEMP = 25.000000 and TNOM = 27.000000


No. of Data Rows : 1
abs(v(alim)) = 0.000000e+00
v(drain) = 0.000000e+00
v(gate) = 0.000000e+00
v(source) = 0.000000e+00
v(body) = 0.000000e+00
i(vd) = -1.47243e-46
i(vg) = -9.79052e-47
i(vs) = -1.47102e-46
i(vb) = 3.922498e-46
Doing analysis at TEMP = 25.000000 and TNOM = 27.000000


No. of Data Rows : 1
abs(v(alim)) = 0.000000e+00
v(drain) = 2.500000e-02
v(gate) = 0.000000e+00
v(source) = 0.000000e+00
v(body) = 0.000000e+00
i(vd) = -2.82632e-11
i(vg) = 5.452820e-15
i(vs) = 2.825777e-11
i(vb) = 5.012849e-18
Doing analysis at TEMP = 25.000000 and TNOM = 27.000000


No. of Data Rows : 1
abs(v(alim)) = 0.000000e+00
v(drain) = 5.000000e-02
v(gate) = 0.000000e+00
v(source) = 0.000000e+00
v(body) = 0.000000e+00
i(vd) = -4.14417e-11
i(vg) = 1.309897e-14
i(vs) = 4.142860e-11
i(vb) = 6.911974e-18
Doing analysis at TEMP = 25.000000 and TNOM = 27.000000


No. of Data Rows : 1
abs(v(alim)) = 0.000000e+00
v(drain) = 7.500000e-02
v(gate) = 0.000000e+00
v(source) = 0.000000e+00
v(body) = 0.000000e+00
i(vd) = -4.88264e-11
i(vg) = 2.327076e-14
i(vs) = 4.880308e-11
i(vb) = 7.636238e-18
Doing analysis at TEMP = 25.000000 and TNOM = 27.000000


No. of Data Rows : 1
abs(v(alim)) = 0.000000e+00
v(drain) = 1.000000e-01
v(gate) = 0.000000e+00
v(source) = 0.000000e+00
v(body) = 0.000000e+00
i(vd) = -5.49278e-11
i(vg) = 3.633735e-14
i(vs) = 5.489149e-11
i(vb) = 7.917857e-18
Doing analysis at TEMP = 25.000000 and TNOM = 27.000000


No. of Data Rows : 1
abs(v(alim)) = 0.000000e+00
v(drain) = 1.250000e-01
v(gate) = 0.000000e+00
v(source) = 0.000000e+00
v(body) = 0.000000e+00
i(vd) = -6.09882e-11
i(vg) = 5.270842e-14
i(vs) = 6.093545e-11
i(vb) = 8.033653e-18
Doing analysis at TEMP = 25.000000 and TNOM = 27.000000


No. of Data Rows : 1
abs(v(alim)) = 0.000000e+00
v(drain) = 1.500000e-01
v(gate) = 0.000000e+00
v(source) = 0.000000e+00
v(body) = 0.000000e+00
i(vd) = -6.73822e-11
i(vg) = 7.283804e-14
i(vs) = 6.730931e-11
i(vb) = 8.088447e-18
Doing analysis at TEMP = 25.000000 and TNOM = 27.000000


No. of Data Rows : 1
abs(v(alim)) = 0.000000e+00
v(drain) = 1.750000e-01
v(gate) = 0.000000e+00
v(source) = 0.000000e+00
v(body) = 0.000000e+00
i(vd) = -7.42734e-11
i(vg) = 9.722885e-14
i(vs) = 7.417617e-11
i(vb) = 8.122079e-18
Doing analysis at TEMP = 25.000000 and TNOM = 27.000000


No. of Data Rows : 1
abs(v(alim)) = 0.000000e+00
v(drain) = 2.000000e-01
v(gate) = 0.000000e+00
v(source) = 0.000000e+00
v(body) = 0.000000e+00
i(vd) = -8.17655e-11
i(vg) = 1.264367e-13
i(vs) = 8.163903e-11
i(vb) = 8.149856e-18
Doing analysis at TEMP = 25.000000 and TNOM = 27.000000


No. of Data Rows : 1
abs(v(alim)) = 0.000000e+00
v(drain) = 2.250000e-01
v(gate) = 0.000000e+00
v(source) = 0.000000e+00
v(body) = 0.000000e+00
i(vd) = -8.99436e-11
i(vg) = 1.610755e-13
i(vs) = 8.978254e-11
i(vb) = 8.177850e-18
Doing analysis at TEMP = 25.000000 and TNOM = 27.000000


No. of Data Rows : 1
abs(v(alim)) = 0.000000e+00
v(drain) = 2.500000e-01
v(gate) = 0.000000e+00
v(source) = 0.000000e+00
v(body) = 0.000000e+00
i(vd) = -9.88890e-11
i(vg) = 2.018227e-13
i(vs) = 9.868716e-11
i(vb) = 8.208680e-18
Doing analysis at TEMP = 25.000000 and TNOM = 27.000000


No. of Data Rows : 1
abs(v(alim)) = 0.000000e+00
v(drain) = 2.750000e-01
v(gate) = 0.000000e+00
v(source) = 0.000000e+00
v(body) = 0.000000e+00
i(vd) = -1.08685e-10
i(vg) = 2.494251e-13
i(vs) = 1.084351e-10
i(vb) = 8.243702e-18
Doing analysis at TEMP = 25.000000 and TNOM = 27.000000


No. of Data Rows : 1
abs(v(alim)) = 0.000000e+00
v(drain) = 3.000000e-01
v(gate) = 0.000000e+00
v(source) = 0.000000e+00
v(body) = 0.000000e+00
i(vd) = -1.19418e-10
i(vg) = 3.047051e-13
i(vs) = 1.191133e-10
i(vb) = 8.283840e-18
Doing analysis at TEMP = 25.000000 and TNOM = 27.000000


No. of Data Rows : 1
abs(v(alim)) = 0.000000e+00
v(drain) = 3.250000e-01
v(gate) = 0.000000e+00
v(source) = 0.000000e+00
v(body) = 0.000000e+00
i(vd) = -1.31184e-10
i(vg) = 3.685676e-13
i(vs) = 1.308150e-10
i(vb) = 8.329905e-18
Doing analysis at TEMP = 25.000000 and TNOM = 27.000000


No. of Data Rows : 1
abs(v(alim)) = 0.000000e+00
v(drain) = 3.500000e-01
v(gate) = 0.000000e+00
v(source) = 0.000000e+00
v(body) = 0.000000e+00
i(vd) = -1.44083e-10
i(vg) = 4.420077e-13
i(vs) = 1.436414e-10
i(vb) = 8.382725e-18
Doing analysis at TEMP = 25.000000 and TNOM = 27.000000


No. of Data Rows : 1
abs(v(alim)) = 0.000000e+00
v(drain) = 3.750000e-01
v(gate) = 0.000000e+00
v(source) = 0.000000e+00
v(body) = 0.000000e+00
i(vd) = -1.58229e-10
i(vg) = 5.261184e-13
i(vs) = 1.577026e-10
i(vb) = 8.443194e-18
Doing analysis at TEMP = 25.000000 and TNOM = 27.000000


No. of Data Rows : 1
abs(v(alim)) = 0.000000e+00
v(drain) = 4.000000e-01
v(gate) = 0.000000e+00
v(source) = 0.000000e+00
v(body) = 0.000000e+00
i(vd) = -1.73741e-10
i(vg) = 6.220994e-13
i(vs) = 1.731189e-10
i(vb) = 8.512302e-18
Doing analysis at TEMP = 25.000000 and TNOM = 27.000000


No. of Data Rows : 1
abs(v(alim)) = 0.000000e+00
v(drain) = 4.250000e-01
v(gate) = 0.000000e+00
v(source) = 0.000000e+00
v(body) = 0.000000e+00
i(vd) = -1.90753e-10
i(vg) = 7.312668e-13
i(vs) = 1.900216e-10
i(vb) = 8.591157e-18
Doing analysis at TEMP = 25.000000 and TNOM = 27.000000


No. of Data Rows : 1
abs(v(alim)) = 0.000000e+00
v(drain) = 4.500000e-01
v(gate) = 0.000000e+00
v(source) = 0.000000e+00
v(body) = 0.000000e+00
i(vd) = -2.09409e-10
i(vg) = 8.550632e-13
i(vs) = 2.085544e-10
i(vb) = 8.680993e-18
Doing analysis at TEMP = 25.000000 and TNOM = 27.000000


No. of Data Rows : 1
abs(v(alim)) = 0.000000e+00
v(drain) = 4.750000e-01
v(gate) = 0.000000e+00
v(source) = 0.000000e+00
v(body) = 0.000000e+00
i(vd) = -2.29870e-10
i(vg) = 9.950689e-13
i(vs) = 2.288746e-10
i(vb) = 8.783194e-18
Doing analysis at TEMP = 25.000000 and TNOM = 27.000000


No. of Data Rows : 1
abs(v(alim)) = 0.000000e+00
v(drain) = 5.000000e-01
v(gate) = 0.000000e+00
v(source) = 0.000000e+00
v(body) = 0.000000e+00
i(vd) = -2.52307e-10
i(vg) = 1.153014e-12
i(vs) = 2.511544e-10
i(vb) = 8.899307e-18
Doing analysis at TEMP = 25.000000 and TNOM = 27.000000


No. of Data Rows : 1
abs(v(alim)) = 0.000000e+00
v(drain) = 5.250000e-01
v(gate) = 0.000000e+00
v(source) = 0.000000e+00
v(body) = 0.000000e+00
i(vd) = -2.76913e-10
i(vg) = 1.330791e-12
i(vs) = 2.755827e-10
i(vb) = 9.031058e-18
Doing analysis at TEMP = 25.000000 and TNOM = 27.000000


No. of Data Rows : 1
abs(v(alim)) = 0.000000e+00
v(drain) = 5.500000e-01
v(gate) = 0.000000e+00
v(source) = 0.000000e+00
v(body) = 0.000000e+00
i(vd) = -3.03897e-10
i(vg) = 1.530470e-12
i(vs) = 3.023665e-10
i(vb) = 9.180379e-18
Doing analysis at TEMP = 25.000000 and TNOM = 27.000000


No. of Data Rows : 1
abs(v(alim)) = 0.000000e+00
v(drain) = 5.750000e-01
v(gate) = 0.000000e+00
v(source) = 0.000000e+00
v(body) = 0.000000e+00
i(vd) = -3.33487e-10
i(vg) = 1.754312e-12
i(vs) = 3.317330e-10
i(vb) = 9.349425e-18
Doing analysis at TEMP = 25.000000 and TNOM = 27.000000


No. of Data Rows : 1
abs(v(alim)) = 0.000000e+00
v(drain) = 6.000000e-01
v(gate) = 0.000000e+00
v(source) = 0.000000e+00
v(body) = 0.000000e+00
i(vd) = -3.65936e-10
i(vg) = 2.004787e-12
i(vs) = 3.639316e-10
i(vb) = 9.540603e-18
Doing analysis at TEMP = 25.000000 and TNOM = 27.000000


No. of Data Rows : 1
abs(v(alim)) = 0.000000e+00
v(drain) = 6.250000e-01
v(gate) = 0.000000e+00
v(source) = 0.000000e+00
v(body) = 0.000000e+00
i(vd) = -4.01521e-10
i(vg) = 2.284592e-12
i(vs) = 3.992364e-10
i(vb) = 9.756595e-18
Doing analysis at TEMP = 25.000000 and TNOM = 27.000000


No. of Data Rows : 1
abs(v(alim)) = 0.000000e+00
v(drain) = 6.500000e-01
v(gate) = 0.000000e+00
v(source) = 0.000000e+00
v(body) = 0.000000e+00
i(vd) = -4.40546e-10
i(vg) = 2.596670e-12
i(vs) = 4.379490e-10
i(vb) = 1.000040e-17
Doing analysis at TEMP = 25.000000 and TNOM = 27.000000


No. of Data Rows : 1
abs(v(alim)) = 0.000000e+00
v(drain) = 6.750000e-01
v(gate) = 0.000000e+00
v(source) = 0.000000e+00
v(body) = 0.000000e+00
i(vd) = -4.83345e-10
i(vg) = 2.944228e-12
i(vs) = 4.804009e-10
i(vb) = 1.027534e-17
Doing analysis at TEMP = 25.000000 and TNOM = 27.000000


No. of Data Rows : 1
abs(v(alim)) = 0.000000e+00
v(drain) = 7.000000e-01
v(gate) = 0.000000e+00
v(source) = 0.000000e+00
v(body) = 0.000000e+00
i(vd) = -5.30289e-10
i(vg) = 3.330766e-12
i(vs) = 5.269578e-10
i(vb) = 1.058515e-17
Doing analysis at TEMP = 25.000000 and TNOM = 27.000000


No. of Data Rows : 1
abs(v(alim)) = 0.000000e+00
v(drain) = 7.250000e-01
v(gate) = 0.000000e+00
v(source) = 0.000000e+00
v(body) = 0.000000e+00
i(vd) = -5.81783e-10
i(vg) = 3.760095e-12
i(vs) = 5.780226e-10
i(vb) = 1.093396e-17
Doing analysis at TEMP = 25.000000 and TNOM = 27.000000


No. of Data Rows : 1
abs(v(alim)) = 0.000000e+00
v(drain) = 7.500000e-01
v(gate) = 0.000000e+00
v(source) = 0.000000e+00
v(body) = 0.000000e+00
i(vd) = -6.38276e-10
i(vg) = 4.236364e-12
i(vs) = 6.340400e-10
i(vb) = 1.132638e-17
Doing analysis at TEMP = 25.000000 and TNOM = 27.000000


No. of Data Rows : 1
abs(v(alim)) = 0.000000e+00
v(drain) = 7.750000e-01
v(gate) = 0.000000e+00
v(source) = 0.000000e+00
v(body) = 0.000000e+00
i(vd) = -7.00265e-10
i(vg) = 4.764094e-12
i(vs) = 6.955009e-10
i(vb) = 1.176753e-17
Doing analysis at TEMP = 25.000000 and TNOM = 27.000000


No. of Data Rows : 1
abs(v(alim)) = 0.000000e+00
v(drain) = 8.000000e-01
v(gate) = 0.000000e+00
v(source) = 0.000000e+00
v(body) = 0.000000e+00
i(vd) = -7.68296e-10
i(vg) = 5.348203e-12
i(vs) = 7.629481e-10
i(vb) = 1.226312e-17
Doing analysis at TEMP = 25.000000 and TNOM = 27.000000


No. of Data Rows : 1
abs(v(alim)) = 0.000000e+00
v(drain) = 8.250000e-01
v(gate) = 0.000000e+00
v(source) = 0.000000e+00
v(body) = 0.000000e+00
i(vd) = -8.42976e-10
i(vg) = 5.994039e-12
i(vs) = 8.369821e-10
i(vb) = 1.281950e-17
Doing analysis at TEMP = 25.000000 and TNOM = 27.000000


No. of Data Rows : 1
abs(v(alim)) = 0.000000e+00
v(drain) = 8.500000e-01
v(gate) = 0.000000e+00
v(source) = 0.000000e+00
v(body) = 0.000000e+00
i(vd) = -9.24975e-10
i(vg) = 6.707421e-12
i(vs) = 9.182673e-10
i(vb) = 1.344371e-17
Doing analysis at TEMP = 25.000000 and TNOM = 27.000000


No. of Data Rows : 1
abs(v(alim)) = 0.000000e+00
v(drain) = 8.750000e-01
v(gate) = 0.000000e+00
v(source) = 0.000000e+00
v(body) = 0.000000e+00
i(vd) = -1.01503e-09
i(vg) = 7.494671e-12
i(vs) = 1.007540e-09
i(vb) = 1.414358e-17
Doing analysis at TEMP = 25.000000 and TNOM = 27.000000


No. of Data Rows : 1
abs(v(alim)) = 0.000000e+00
v(drain) = 9.000000e-01
v(gate) = 0.000000e+00
v(source) = 0.000000e+00
v(body) = 0.000000e+00
i(vd) = -1.11398e-09
i(vg) = 8.362660e-12
i(vs) = 1.105616e-09
i(vb) = 1.492781e-17
Doing analysis at TEMP = 25.000000 and TNOM = 27.000000


No. of Data Rows : 1
abs(v(alim)) = 0.000000e+00
v(drain) = 9.250000e-01
v(gate) = 0.000000e+00
v(source) = 0.000000e+00
v(body) = 0.000000e+00
i(vd) = -1.22272e-09
i(vg) = 9.318853e-12
i(vs) = 1.213402e-09
i(vb) = 1.698476e-17
Doing analysis at TEMP = 25.000000 and TNOM = 27.000000


No. of Data Rows : 1
abs(v(alim)) = 0.000000e+00
v(drain) = 9.500000e-01
v(gate) = 0.000000e+00
v(source) = 0.000000e+00
v(body) = 0.000000e+00
i(vd) = -1.34227e-09
i(vg) = 1.037135e-11
i(vs) = 1.331900e-09
i(vb) = 3.353732e-17
Doing analysis at TEMP = 25.000000 and TNOM = 27.000000


No. of Data Rows : 1
abs(v(alim)) = 0.000000e+00
v(drain) = 9.750000e-01
v(gate) = 0.000000e+00
v(source) = 0.000000e+00
v(body) = 0.000000e+00
i(vd) = -1.47376e-09
i(vg) = 1.152896e-11
i(vs) = 1.462228e-09
i(vb) = 7.722186e-17
Doing analysis at TEMP = 25.000000 and TNOM = 27.000000


No. of Data Rows : 1
abs(v(alim)) = 0.000000e+00
v(drain) = 1.000000e+00
v(gate) = 0.000000e+00
v(source) = 0.000000e+00
v(body) = 0.000000e+00
i(vd) = -1.61843e-09
i(vg) = 1.280122e-11
i(vs) = 1.605624e-09
i(vb) = 1.872833e-16
Doing analysis at TEMP = 25.000000 and TNOM = 27.000000


No. of Data Rows : 1
abs(v(alim)) = 0.000000e+00
v(drain) = 1.025000e+00
v(gate) = 0.000000e+00
v(source) = 0.000000e+00
v(body) = 0.000000e+00
i(vd) = -1.77767e-09
i(vg) = 1.419849e-11
i(vs) = 1.763466e-09
i(vb) = 4.535667e-16
Doing analysis at TEMP = 25.000000 and TNOM = 27.000000


No. of Data Rows : 1
abs(v(alim)) = 0.000000e+00
v(drain) = 1.050000e+00
v(gate) = 0.000000e+00
v(source) = 0.000000e+00
v(body) = 0.000000e+00
i(vd) = -1.95302e-09
i(vg) = 1.573200e-11
i(vs) = 1.937286e-09
i(vb) = 1.094022e-15
Doing analysis at TEMP = 25.000000 and TNOM = 27.000000


No. of Data Rows : 1
abs(v(alim)) = 0.000000e+00
v(drain) = 1.075000e+00
v(gate) = 0.000000e+00
v(source) = 0.000000e+00
v(body) = 0.000000e+00
i(vd) = -2.14620e-09
i(vg) = 1.741393e-11
i(vs) = 2.128786e-09
i(vb) = 2.929277e-15
Doing analysis at TEMP = 25.000000 and TNOM = 27.000000


No. of Data Rows : 1
abs(v(alim)) = 0.000000e+00
v(drain) = 1.100000e+00
v(gate) = 0.000000e+00
v(source) = 0.000000e+00
v(body) = 0.000000e+00
i(vd) = -2.35913e-09
i(vg) = 1.925749e-11
i(vs) = 2.339864e-09
i(vb) = 1.115107e-14
Doing analysis at TEMP = 25.000000 and TNOM = 27.000000


No. of Data Rows : 1
abs(v(alim)) = 0.000000e+00
v(drain) = 1.125000e+00
v(gate) = 0.000000e+00
v(source) = 0.000000e+00
v(body) = 0.000000e+00
i(vd) = -2.59396e-09
i(vg) = 2.127698e-11
i(vs) = 2.572627e-09
i(vb) = 5.839975e-14
Doing analysis at TEMP = 25.000000 and TNOM = 27.000000


No. of Data Rows : 1
abs(v(alim)) = 0.000000e+00
v(drain) = 1.150000e+00
v(gate) = 0.000000e+00
v(source) = 0.000000e+00
v(body) = 0.000000e+00
i(vd) = -2.85322e-09
i(vg) = 2.348789e-11
i(vs) = 2.829425e-09
i(vb) = 3.085068e-13
Doing analysis at TEMP = 25.000000 and TNOM = 27.000000


No. of Data Rows : 1
abs(v(alim)) = 2.500000e-02
v(drain) = 0.000000e+00
v(gate) = 0.000000e+00
v(source) = 2.500000e-02
v(body) = 0.000000e+00
i(vd) = 2.825777e-11
i(vg) = 5.452820e-15
i(vs) = -2.82632e-11
i(vb) = 5.012849e-18
Doing analysis at TEMP = 25.000000 and TNOM = 27.000000


No. of Data Rows : 1
abs(v(alim)) = 2.500000e-02
v(drain) = 2.500000e-02
v(gate) = 0.000000e+00
v(source) = 2.500000e-02
v(body) = 0.000000e+00
i(vd) = -5.45783e-15
i(vg) = 1.090564e-14
i(vs) = -5.45783e-15
i(vb) = 1.001955e-17
Doing analysis at TEMP = 25.000000 and TNOM = 27.000000


No. of Data Rows : 1
abs(v(alim)) = 2.500000e-02
v(drain) = 5.000000e-02
v(gate) = 0.000000e+00
v(source) = 2.500000e-02
v(body) = 0.000000e+00
i(vd) = -1.19498e-11
i(vg) = 1.855180e-14
i(vs) = 1.193124e-11
i(vb) = 1.191423e-17
Doing analysis at TEMP = 25.000000 and TNOM = 27.000000


No. of Data Rows : 1
abs(v(alim)) = 2.500000e-02
v(drain) = 7.500000e-02
v(gate) = 0.000000e+00
v(source) = 2.500000e-02
v(body) = 0.000000e+00
i(vd) = -1.75393e-11
i(vg) = 2.872358e-14
i(vs) = 1.751059e-11
i(vb) = 1.263233e-17
Doing analysis at TEMP = 25.000000 and TNOM = 27.000000


No. of Data Rows : 1
abs(v(alim)) = 2.500000e-02
v(drain) = 1.000000e-01
v(gate) = 0.000000e+00
v(source) = 2.500000e-02
v(body) = 0.000000e+00
i(vd) = -2.06825e-11
i(vg) = 4.179017e-14
i(vs) = 2.064066e-11
i(vb) = 1.290658e-17
Doing analysis at TEMP = 25.000000 and TNOM = 27.000000


No. of Data Rows : 1
abs(v(alim)) = 2.500000e-02
v(drain) = 1.250000e-01
v(gate) = 0.000000e+00
v(source) = 2.500000e-02
v(body) = 0.000000e+00
i(vd) = -2.32860e-11
i(vg) = 5.816125e-14
i(vs) = 2.322780e-11
i(vb) = 1.301366e-17
Doing analysis at TEMP = 25.000000 and TNOM = 27.000000


No. of Data Rows : 1
abs(v(alim)) = 2.500000e-02
v(drain) = 1.500000e-01
v(gate) = 0.000000e+00
v(source) = 2.500000e-02
v(body) = 0.000000e+00
i(vd) = -2.58765e-11
i(vg) = 7.829086e-14
i(vs) = 2.579816e-11
i(vb) = 1.305818e-17
Doing analysis at TEMP = 25.000000 and TNOM = 27.000000


No. of Data Rows : 1
abs(v(alim)) = 2.500000e-02
v(drain) = 1.750000e-01
v(gate) = 0.000000e+00
v(source) = 2.500000e-02
v(body) = 0.000000e+00
i(vd) = -2.86133e-11
i(vg) = 1.026817e-13
i(vs) = 2.851065e-11
i(vb) = 1.307978e-17
Doing analysis at TEMP = 25.000000 and TNOM = 27.000000


No. of Data Rows : 1
abs(v(alim)) = 2.500000e-02
v(drain) = 2.000000e-01
v(gate) = 0.000000e+00
v(source) = 2.500000e-02
v(body) = 0.000000e+00
i(vd) = -3.15666e-11
i(vg) = 1.318895e-13
i(vs) = 3.143473e-11
i(vb) = 1.309352e-17
Doing analysis at TEMP = 25.000000 and TNOM = 27.000000


No. of Data Rows : 1
abs(v(alim)) = 2.500000e-02
v(drain) = 2.250000e-01
v(gate) = 0.000000e+00
v(source) = 2.500000e-02
v(body) = 0.000000e+00
i(vd) = -3.47810e-11
i(vg) = 1.665283e-13
i(vs) = 3.461445e-11
i(vb) = 1.310520e-17
Doing analysis at TEMP = 25.000000 and TNOM = 27.000000


No. of Data Rows : 1
abs(v(alim)) = 2.500000e-02
v(drain) = 2.500000e-01
v(gate) = 0.000000e+00
v(source) = 2.500000e-02
v(body) = 0.000000e+00
i(vd) = -3.82934e-11
i(vg) = 2.072755e-13
i(vs) = 3.808615e-11
i(vb) = 1.311714e-17
Doing analysis at TEMP = 25.000000 and TNOM = 27.000000


No. of Data Rows : 1
abs(v(alim)) = 2.500000e-02
v(drain) = 2.750000e-01
v(gate) = 0.000000e+00
v(source) = 2.500000e-02
v(body) = 0.000000e+00
i(vd) = -4.21394e-11
i(vg) = 2.548779e-13
i(vs) = 4.188448e-11
i(vb) = 1.313036e-17
Doing analysis at TEMP = 25.000000 and TNOM = 27.000000


No. of Data Rows : 1
abs(v(alim)) = 2.500000e-02
v(drain) = 3.000000e-01
v(gate) = 0.000000e+00
v(source) = 2.500000e-02
v(body) = 0.000000e+00
i(vd) = -4.63551e-11
i(vg) = 3.101579e-13
i(vs) = 4.604489e-11
i(vb) = 1.314539e-17
Doing analysis at TEMP = 25.000000 and TNOM = 27.000000


No. of Data Rows : 1
abs(v(alim)) = 2.500000e-02
v(drain) = 3.250000e-01
v(gate) = 0.000000e+00
v(source) = 2.500000e-02
v(body) = 0.000000e+00
i(vd) = -5.09789e-11
i(vg) = 3.740205e-13
i(vs) = 5.060490e-11
i(vb) = 1.316262e-17
Doing analysis at TEMP = 25.000000 and TNOM = 27.000000


No. of Data Rows : 1
abs(v(alim)) = 2.500000e-02
v(drain) = 3.500000e-01
v(gate) = 0.000000e+00
v(source) = 2.500000e-02
v(body) = 0.000000e+00
i(vd) = -5.60524e-11
i(vg) = 4.474606e-13
i(vs) = 5.560489e-11
i(vb) = 1.318239e-17
Doing analysis at TEMP = 25.000000 and TNOM = 27.000000


No. of Data Rows : 1
abs(v(alim)) = 2.500000e-02
v(drain) = 3.750000e-01
v(gate) = 0.000000e+00
v(source) = 2.500000e-02
v(body) = 0.000000e+00
i(vd) = -6.16202e-11
i(vg) = 5.315712e-13
i(vs) = 6.108865e-11
i(vb) = 1.320506e-17
Doing analysis at TEMP = 25.000000 and TNOM = 27.000000


No. of Data Rows : 1
abs(v(alim)) = 2.500000e-02
v(drain) = 4.000000e-01
v(gate) = 0.000000e+00
v(source) = 2.500000e-02
v(body) = 0.000000e+00
i(vd) = -6.77315e-11
i(vg) = 6.275522e-13
i(vs) = 6.710389e-11
i(vb) = 1.323100e-17
Doing analysis at TEMP = 25.000000 and TNOM = 27.000000


No. of Data Rows : 1
abs(v(alim)) = 2.500000e-02
v(drain) = 4.250000e-01
v(gate) = 0.000000e+00
v(source) = 2.500000e-02
v(body) = 0.000000e+00
i(vd) = -7.44395e-11
i(vg) = 7.367196e-13
i(vs) = 7.370274e-11
i(vb) = 1.326065e-17
Doing analysis at TEMP = 25.000000 and TNOM = 27.000000


No. of Data Rows : 1
abs(v(alim)) = 2.500000e-02
v(drain) = 4.500000e-01
v(gate) = 0.000000e+00
v(source) = 2.500000e-02
v(body) = 0.000000e+00
i(vd) = -8.18027e-11
i(vg) = 8.605160e-13
i(vs) = 8.094220e-11
i(vb) = 1.329449e-17
Doing analysis at TEMP = 25.000000 and TNOM = 27.000000


No. of Data Rows : 1
abs(v(alim)) = 2.500000e-02
v(drain) = 4.750000e-01
v(gate) = 0.000000e+00
v(source) = 2.500000e-02
v(body) = 0.000000e+00
i(vd) = -8.98853e-11
i(vg) = 1.000522e-12
i(vs) = 8.888472e-11
i(vb) = 1.333304e-17
Doing analysis at TEMP = 25.000000 and TNOM = 27.000000


No. of Data Rows : 1
abs(v(alim)) = 2.500000e-02
v(drain) = 5.000000e-01
v(gate) = 0.000000e+00
v(source) = 2.500000e-02
v(body) = 0.000000e+00
i(vd) = -9.87572e-11
i(vg) = 1.158467e-12
i(vs) = 9.759869e-11
i(vb) = 1.337691e-17
Doing analysis at TEMP = 25.000000 and TNOM = 27.000000


No. of Data Rows : 1
abs(v(alim)) = 2.500000e-02
v(drain) = 5.250000e-01
v(gate) = 0.000000e+00
v(source) = 2.500000e-02
v(body) = 0.000000e+00
i(vd) = -1.08495e-10
i(vg) = 1.336244e-12
i(vs) = 1.071591e-10
i(vb) = 1.342676e-17
Doing analysis at TEMP = 25.000000 and TNOM = 27.000000


No. of Data Rows : 1
abs(v(alim)) = 2.500000e-02
v(drain) = 5.500000e-01
v(gate) = 0.000000e+00
v(source) = 2.500000e-02
v(body) = 0.000000e+00
i(vd) = -1.19184e-10
i(vg) = 1.535923e-12
i(vs) = 1.176482e-10
i(vb) = 1.348335e-17
Doing analysis at TEMP = 25.000000 and TNOM = 27.000000


No. of Data Rows : 1
abs(v(alim)) = 2.500000e-02
v(drain) = 5.750000e-01
v(gate) = 0.000000e+00
v(source) = 2.500000e-02
v(body) = 0.000000e+00
i(vd) = -1.30916e-10
i(vg) = 1.759764e-12
i(vs) = 1.291562e-10
i(vb) = 1.354751e-17
Doing analysis at TEMP = 25.000000 and TNOM = 27.000000


No. of Data Rows : 1
abs(v(alim)) = 2.500000e-02
v(drain) = 6.000000e-01
v(gate) = 0.000000e+00
v(source) = 2.500000e-02
v(body) = 0.000000e+00
i(vd) = -1.43793e-10
i(vg) = 2.010240e-12
i(vs) = 1.417824e-10
i(vb) = 1.362018e-17
Doing analysis at TEMP = 25.000000 and TNOM = 27.000000


No. of Data Rows : 1
abs(v(alim)) = 2.500000e-02
v(drain) = 6.250000e-01
v(gate) = 0.000000e+00
v(source) = 2.500000e-02
v(body) = 0.000000e+00
i(vd) = -1.57926e-10
i(vg) = 2.290045e-12
i(vs) = 1.556356e-10
i(vb) = 1.370240e-17
Doing analysis at TEMP = 25.000000 and TNOM = 27.000000


No. of Data Rows : 1
abs(v(alim)) = 2.500000e-02
v(drain) = 6.500000e-01
v(gate) = 0.000000e+00
v(source) = 2.500000e-02
v(body) = 0.000000e+00
i(vd) = -1.73438e-10
i(vg) = 2.602123e-12
i(vs) = 1.708358e-10
i(vb) = 1.379534e-17
Doing analysis at TEMP = 25.000000 and TNOM = 27.000000


No. of Data Rows : 1
abs(v(alim)) = 2.500000e-02
v(drain) = 6.750000e-01
v(gate) = 0.000000e+00
v(source) = 2.500000e-02
v(body) = 0.000000e+00
i(vd) = -1.90465e-10
i(vg) = 2.949681e-12
i(vs) = 1.875149e-10
i(vb) = 1.390030e-17
Doing analysis at TEMP = 25.000000 and TNOM = 27.000000


No. of Data Rows : 1
abs(v(alim)) = 2.500000e-02
v(drain) = 7.000000e-01
v(gate) = 0.000000e+00
v(source) = 2.500000e-02
v(body) = 0.000000e+00
i(vd) = -2.09155e-10
i(vg) = 3.336219e-12
i(vs) = 2.058183e-10
i(vb) = 1.401874e-17
Doing analysis at TEMP = 25.000000 and TNOM = 27.000000


No. of Data Rows : 1
abs(v(alim)) = 2.500000e-02
v(drain) = 7.250000e-01
v(gate) = 0.000000e+00
v(source) = 2.500000e-02
v(body) = 0.000000e+00
i(vd) = -2.29672e-10
i(vg) = 3.765547e-12
i(vs) = 2.259062e-10
i(vb) = 1.415229e-17
Doing analysis at TEMP = 25.000000 and TNOM = 27.000000


No. of Data Rows : 1
abs(v(alim)) = 2.500000e-02
v(drain) = 7.500000e-01
v(gate) = 0.000000e+00
v(source) = 2.500000e-02
v(body) = 0.000000e+00
i(vd) = -2.52197e-10
i(vg) = 4.241817e-12
i(vs) = 2.479556e-10
i(vb) = 1.430274e-17
Doing analysis at TEMP = 25.000000 and TNOM = 27.000000


No. of Data Rows : 1
abs(v(alim)) = 2.500000e-02
v(drain) = 7.750000e-01
v(gate) = 0.000000e+00
v(source) = 2.500000e-02
v(body) = 0.000000e+00
i(vd) = -2.76931e-10
i(vg) = 4.769547e-12
i(vs) = 2.721618e-10
i(vb) = 1.447212e-17
Doing analysis at TEMP = 25.000000 and TNOM = 27.000000


No. of Data Rows : 1
abs(v(alim)) = 2.500000e-02
v(drain) = 8.000000e-01
v(gate) = 0.000000e+00
v(source) = 2.500000e-02
v(body) = 0.000000e+00
i(vd) = -3.04095e-10
i(vg) = 5.353656e-12
i(vs) = 2.987409e-10
i(vb) = 1.466267e-17
Doing analysis at TEMP = 25.000000 and TNOM = 27.000000


No. of Data Rows : 1
abs(v(alim)) = 2.500000e-02
v(drain) = 8.250000e-01
v(gate) = 0.000000e+00
v(source) = 2.500000e-02
v(body) = 0.000000e+00
i(vd) = -3.33931e-10
i(vg) = 5.999492e-12
i(vs) = 3.279318e-10
i(vb) = 1.487689e-17
Doing analysis at TEMP = 25.000000 and TNOM = 27.000000


No. of Data Rows : 1
abs(v(alim)) = 2.500000e-02
v(drain) = 8.500000e-01
v(gate) = 0.000000e+00
v(source) = 2.500000e-02
v(body) = 0.000000e+00
i(vd) = -3.66712e-10
i(vg) = 6.712873e-12
i(vs) = 3.599993e-10
i(vb) = 1.511756e-17
Doing analysis at TEMP = 25.000000 and TNOM = 27.000000


No. of Data Rows : 1
abs(v(alim)) = 2.500000e-02
v(drain) = 8.750000e-01
v(gate) = 0.000000e+00
v(source) = 2.500000e-02
v(body) = 0.000000e+00
i(vd) = -4.02737e-10
i(vg) = 7.500123e-12
i(vs) = 3.952366e-10
i(vb) = 1.538779e-17
Doing analysis at TEMP = 25.000000 and TNOM = 27.000000


No. of Data Rows : 1
abs(v(alim)) = 2.500000e-02
v(drain) = 9.000000e-01
v(gate) = 0.000000e+00
v(source) = 2.500000e-02
v(body) = 0.000000e+00
i(vd) = -4.42337e-10
i(vg) = 8.368113e-12
i(vs) = 4.339689e-10
i(vb) = 1.569101e-17
Doing analysis at TEMP = 25.000000 and TNOM = 27.000000


No. of Data Rows : 1
abs(v(alim)) = 2.500000e-02
v(drain) = 9.250000e-01
v(gate) = 0.000000e+00
v(source) = 2.500000e-02
v(body) = 0.000000e+00
i(vd) = -4.85882e-10
i(vg) = 9.324306e-12
i(vs) = 4.765572e-10
i(vb) = 1.603107e-17
Doing analysis at TEMP = 25.000000 and TNOM = 27.000000


No. of Data Rows : 1
abs(v(alim)) = 2.500000e-02
v(drain) = 9.500000e-01
v(gate) = 0.000000e+00
v(source) = 2.500000e-02
v(body) = 0.000000e+00
i(vd) = -5.33779e-10
i(vg) = 1.037681e-11
i(vs) = 5.234023e-10
i(vb) = 1.691279e-17
Doing analysis at TEMP = 25.000000 and TNOM = 27.000000


No. of Data Rows : 1
abs(v(alim)) = 2.500000e-02
v(drain) = 9.750000e-01
v(gate) = 0.000000e+00
v(source) = 2.500000e-02
v(body) = 0.000000e+00
i(vd) = -5.86484e-10
i(vg) = 1.153441e-11
i(vs) = 5.749496e-10
i(vb) = 2.404769e-17
Doing analysis at TEMP = 25.000000 and TNOM = 27.000000


No. of Data Rows : 1
abs(v(alim)) = 2.500000e-02
v(drain) = 1.000000e+00
v(gate) = 0.000000e+00
v(source) = 2.500000e-02
v(body) = 0.000000e+00
i(vd) = -6.44501e-10
i(vg) = 1.280667e-11
i(vs) = 6.316942e-10
i(vb) = 4.290245e-17
Doing analysis at TEMP = 25.000000 and TNOM = 27.000000


No. of Data Rows : 1
abs(v(alim)) = 2.500000e-02
v(drain) = 1.025000e+00
v(gate) = 0.000000e+00
v(source) = 2.500000e-02
v(body) = 0.000000e+00
i(vd) = -7.08391e-10
i(vg) = 1.420394e-11
i(vs) = 6.941869e-10
i(vb) = 9.110145e-17
Doing analysis at TEMP = 25.000000 and TNOM = 27.000000


No. of Data Rows : 1
abs(v(alim)) = 2.500000e-02
v(drain) = 1.050000e+00
v(gate) = 0.000000e+00
v(source) = 2.500000e-02
v(body) = 0.000000e+00
i(vd) = -7.78778e-10
i(vg) = 1.573745e-11
i(vs) = 7.630406e-10
i(vb) = 2.302823e-16
Doing analysis at TEMP = 25.000000 and TNOM = 27.000000


No. of Data Rows : 1
abs(v(alim)) = 2.500000e-02
v(drain) = 1.075000e+00
v(gate) = 0.000000e+00
v(source) = 2.500000e-02
v(body) = 0.000000e+00
i(vd) = -8.56358e-10
i(vg) = 1.741939e-11
i(vs) = 8.389377e-10
i(vb) = 9.547272e-16
Doing analysis at TEMP = 25.000000 and TNOM = 27.000000


No. of Data Rows : 1
abs(v(alim)) = 2.500000e-02
v(drain) = 1.100000e+00
v(gate) = 0.000000e+00
v(source) = 2.500000e-02
v(body) = 0.000000e+00
i(vd) = -9.41908e-10
i(vg) = 1.926294e-11
i(vs) = 9.226384e-10
i(vb) = 6.797166e-15
Doing analysis at TEMP = 25.000000 and TNOM = 27.000000


No. of Data Rows : 1
abs(v(alim)) = 2.500000e-02
v(drain) = 1.125000e+00
v(gate) = 0.000000e+00
v(source) = 2.500000e-02
v(body) = 0.000000e+00
i(vd) = -1.03632e-09
i(vg) = 2.128243e-11
i(vs) = 1.014989e-09
i(vb) = 4.910765e-14
Doing analysis at TEMP = 25.000000 and TNOM = 27.000000


No. of Data Rows : 1
abs(v(alim)) = 2.500000e-02
v(drain) = 1.150000e+00
v(gate) = 0.000000e+00
v(source) = 2.500000e-02
v(body) = 0.000000e+00
i(vd) = -1.14072e-09
i(vg) = 2.349334e-11
i(vs) = 1.116934e-09
i(vb) = 2.892628e-13
Doing analysis at TEMP = 25.000000 and TNOM = 27.000000


No. of Data Rows : 1
abs(v(alim)) = 5.000000e-02
v(drain) = 0.000000e+00
v(gate) = 0.000000e+00
v(source) = 5.000000e-02
v(body) = 0.000000e+00
i(vd) = 4.142860e-11
i(vg) = 1.309897e-14
i(vs) = -4.14417e-11
i(vb) = 6.911974e-18
Doing analysis at TEMP = 25.000000 and TNOM = 27.000000


No. of Data Rows : 1
abs(v(alim)) = 5.000000e-02
v(drain) = 2.500000e-02
v(gate) = 0.000000e+00
v(source) = 5.000000e-02
v(body) = 0.000000e+00
i(vd) = 1.193124e-11
i(vg) = 1.855180e-14
i(vs) = -1.19498e-11
i(vb) = 1.191423e-17
Doing analysis at TEMP = 25.000000 and TNOM = 27.000000


No. of Data Rows : 1
abs(v(alim)) = 5.000000e-02
v(drain) = 5.000000e-02
v(gate) = 0.000000e+00
v(source) = 5.000000e-02
v(body) = 0.000000e+00
i(vd) = -1.31059e-14
i(vg) = 2.619795e-14
i(vs) = -1.31059e-14
i(vb) = 1.380472e-17
Doing analysis at TEMP = 25.000000 and TNOM = 27.000000


No. of Data Rows : 1
abs(v(alim)) = 5.000000e-02
v(drain) = 7.500000e-02
v(gate) = 0.000000e+00
v(source) = 5.000000e-02
v(body) = 0.000000e+00
i(vd) = -5.04491e-12
i(vg) = 3.636974e-14
i(vs) = 5.008530e-12
i(vb) = 1.452094e-17
Doing analysis at TEMP = 25.000000 and TNOM = 27.000000


No. of Data Rows : 1
abs(v(alim)) = 5.000000e-02
v(drain) = 1.000000e-01
v(gate) = 0.000000e+00
v(source) = 5.000000e-02
v(body) = 0.000000e+00
i(vd) = -7.41132e-12
i(vg) = 4.943633e-14
i(vs) = 7.361874e-12
i(vb) = 1.479257e-17
Doing analysis at TEMP = 25.000000 and TNOM = 27.000000


No. of Data Rows : 1
abs(v(alim)) = 5.000000e-02
v(drain) = 1.250000e-01
v(gate) = 0.000000e+00
v(source) = 5.000000e-02
v(body) = 0.000000e+00
i(vd) = -8.75027e-12
i(vg) = 6.580740e-14
i(vs) = 8.684452e-12
i(vb) = 1.489652e-17
Doing analysis at TEMP = 25.000000 and TNOM = 27.000000


No. of Data Rows : 1
abs(v(alim)) = 5.000000e-02
v(drain) = 1.500000e-01
v(gate) = 0.000000e+00
v(source) = 5.000000e-02
v(body) = 0.000000e+00
i(vd) = -9.86467e-12
i(vg) = 8.593702e-14
i(vs) = 9.778720e-12
i(vb) = 1.493735e-17
Doing analysis at TEMP = 25.000000 and TNOM = 27.000000


No. of Data Rows : 1
abs(v(alim)) = 5.000000e-02
v(drain) = 1.750000e-01
v(gate) = 0.000000e+00
v(source) = 5.000000e-02
v(body) = 0.000000e+00
i(vd) = -1.09770e-11
i(vg) = 1.103278e-13
i(vs) = 1.086667e-11
i(vb) = 1.495458e-17
Doing analysis at TEMP = 25.000000 and TNOM = 27.000000


No. of Data Rows : 1
abs(v(alim)) = 5.000000e-02
v(drain) = 2.000000e-01
v(gate) = 0.000000e+00
v(source) = 5.000000e-02
v(body) = 0.000000e+00
i(vd) = -1.21550e-11
i(vg) = 1.395357e-13
i(vs) = 1.201546e-11
i(vb) = 1.496320e-17
Doing analysis at TEMP = 25.000000 and TNOM = 27.000000


No. of Data Rows : 1
abs(v(alim)) = 5.000000e-02
v(drain) = 2.250000e-01
v(gate) = 0.000000e+00
v(source) = 5.000000e-02
v(body) = 0.000000e+00
i(vd) = -1.34287e-11
i(vg) = 1.741745e-13
i(vs) = 1.325454e-11
i(vb) = 1.496890e-17
Doing analysis at TEMP = 25.000000 and TNOM = 27.000000


No. of Data Rows : 1
abs(v(alim)) = 5.000000e-02
v(drain) = 2.500000e-01
v(gate) = 0.000000e+00
v(source) = 5.000000e-02
v(body) = 0.000000e+00
i(vd) = -1.48176e-11
i(vg) = 2.149217e-13
i(vs) = 1.460263e-11
i(vb) = 1.497389e-17
Doing analysis at TEMP = 25.000000 and TNOM = 27.000000


No. of Data Rows : 1
abs(v(alim)) = 5.000000e-02
v(drain) = 2.750000e-01
v(gate) = 0.000000e+00
v(source) = 5.000000e-02
v(body) = 0.000000e+00
i(vd) = -1.63378e-11
i(vg) = 2.625240e-13
i(vs) = 1.607526e-11
i(vb) = 1.497905e-17
Doing analysis at TEMP = 25.000000 and TNOM = 27.000000


No. of Data Rows : 1
abs(v(alim)) = 5.000000e-02
v(drain) = 3.000000e-01
v(gate) = 0.000000e+00
v(source) = 5.000000e-02
v(body) = 0.000000e+00
i(vd) = -1.80050e-11
i(vg) = 3.178040e-13
i(vs) = 1.768722e-11
i(vb) = 1.498477e-17
Doing analysis at TEMP = 25.000000 and TNOM = 27.000000


No. of Data Rows : 1
abs(v(alim)) = 5.000000e-02
v(drain) = 3.250000e-01
v(gate) = 0.000000e+00
v(source) = 5.000000e-02
v(body) = 0.000000e+00
i(vd) = -1.98354e-11
i(vg) = 3.816666e-13
i(vs) = 1.945372e-11
i(vb) = 1.499128e-17
Doing analysis at TEMP = 25.000000 and TNOM = 27.000000


No. of Data Rows : 1
abs(v(alim)) = 5.000000e-02
v(drain) = 3.500000e-01
v(gate) = 0.000000e+00
v(source) = 5.000000e-02
v(body) = 0.000000e+00
i(vd) = -2.18460e-11
i(vg) = 4.551067e-13
i(vs) = 2.139086e-11
i(vb) = 1.499872e-17
Doing analysis at TEMP = 25.000000 and TNOM = 27.000000


No. of Data Rows : 1
abs(v(alim)) = 5.000000e-02
v(drain) = 3.750000e-01
v(gate) = 0.000000e+00
v(source) = 5.000000e-02
v(body) = 0.000000e+00
i(vd) = -2.40552e-11
i(vg) = 5.392174e-13
i(vs) = 2.351595e-11
i(vb) = 1.500725e-17
Doing analysis at TEMP = 25.000000 and TNOM = 27.000000


No. of Data Rows : 1
abs(v(alim)) = 5.000000e-02
v(drain) = 4.000000e-01
v(gate) = 0.000000e+00
v(source) = 5.000000e-02
v(body) = 0.000000e+00
i(vd) = -2.64830e-11
i(vg) = 6.351983e-13
i(vs) = 2.584783e-11
i(vb) = 1.501701e-17
Doing analysis at TEMP = 25.000000 and TNOM = 27.000000


No. of Data Rows : 1
abs(v(alim)) = 5.000000e-02
v(drain) = 4.250000e-01
v(gate) = 0.000000e+00
v(source) = 5.000000e-02
v(body) = 0.000000e+00
i(vd) = -2.91514e-11
i(vg) = 7.443657e-13
i(vs) = 2.840701e-11
i(vb) = 1.502816e-17
Doing analysis at TEMP = 25.000000 and TNOM = 27.000000


No. of Data Rows : 1
abs(v(alim)) = 5.000000e-02
v(drain) = 4.500000e-01
v(gate) = 0.000000e+00
v(source) = 5.000000e-02
v(body) = 0.000000e+00
i(vd) = -3.20841e-11
i(vg) = 8.681622e-13
i(vs) = 3.121592e-11
i(vb) = 1.504090e-17
Doing analysis at TEMP = 25.000000 and TNOM = 27.000000


No. of Data Rows : 1
abs(v(alim)) = 5.000000e-02
v(drain) = 4.750000e-01
v(gate) = 0.000000e+00
v(source) = 5.000000e-02
v(body) = 0.000000e+00
i(vd) = -3.53073e-11
i(vg) = 1.008168e-12
i(vs) = 3.429913e-11
i(vb) = 1.505542e-17
Doing analysis at TEMP = 25.000000 and TNOM = 27.000000


No. of Data Rows : 1
abs(v(alim)) = 5.000000e-02
v(drain) = 5.000000e-01
v(gate) = 0.000000e+00
v(source) = 5.000000e-02
v(body) = 0.000000e+00
i(vd) = -3.88497e-11
i(vg) = 1.166113e-12
i(vs) = 3.768352e-11
i(vb) = 1.507196e-17
Doing analysis at TEMP = 25.000000 and TNOM = 27.000000


No. of Data Rows : 1
abs(v(alim)) = 5.000000e-02
v(drain) = 5.250000e-01
v(gate) = 0.000000e+00
v(source) = 5.000000e-02
v(body) = 0.000000e+00
i(vd) = -4.27425e-11
i(vg) = 1.343890e-12
i(vs) = 4.139862e-11
i(vb) = 1.509077e-17
Doing analysis at TEMP = 25.000000 and TNOM = 27.000000


No. of Data Rows : 1
abs(v(alim)) = 5.000000e-02
v(drain) = 5.500000e-01
v(gate) = 0.000000e+00
v(source) = 5.000000e-02
v(body) = 0.000000e+00
i(vd) = -4.70204e-11
i(vg) = 1.543569e-12
i(vs) = 4.547677e-11
i(vb) = 1.511213e-17
Doing analysis at TEMP = 25.000000 and TNOM = 27.000000


No. of Data Rows : 1
abs(v(alim)) = 5.000000e-02
v(drain) = 5.750000e-01
v(gate) = 0.000000e+00
v(source) = 5.000000e-02
v(body) = 0.000000e+00
i(vd) = -5.17209e-11
i(vg) = 1.767411e-12
i(vs) = 4.995351e-11
i(vb) = 1.513638e-17
Doing analysis at TEMP = 25.000000 and TNOM = 27.000000


No. of Data Rows : 1
abs(v(alim)) = 5.000000e-02
v(drain) = 6.000000e-01
v(gate) = 0.000000e+00
v(source) = 5.000000e-02
v(body) = 0.000000e+00
i(vd) = -5.68858e-11
i(vg) = 2.017886e-12
i(vs) = 5.486786e-11
i(vb) = 1.516387e-17
Doing analysis at TEMP = 25.000000 and TNOM = 27.000000


No. of Data Rows : 1
abs(v(alim)) = 5.000000e-02
v(drain) = 6.250000e-01
v(gate) = 0.000000e+00
v(source) = 5.000000e-02
v(body) = 0.000000e+00
i(vd) = -6.25604e-11
i(vg) = 2.297691e-12
i(vs) = 6.026272e-11
i(vb) = 1.519501e-17
Doing analysis at TEMP = 25.000000 and TNOM = 27.000000


No. of Data Rows : 1
abs(v(alim)) = 5.000000e-02
v(drain) = 6.500000e-01
v(gate) = 0.000000e+00
v(source) = 5.000000e-02
v(body) = 0.000000e+00
i(vd) = -6.87950e-11
i(vg) = 2.609769e-12
i(vs) = 6.618525e-11
i(vb) = 1.523024e-17
Doing analysis at TEMP = 25.000000 and TNOM = 27.000000


No. of Data Rows : 1
abs(v(alim)) = 5.000000e-02
v(drain) = 6.750000e-01
v(gate) = 0.000000e+00
v(source) = 5.000000e-02
v(body) = 0.000000e+00
i(vd) = -7.56447e-11
i(vg) = 2.957327e-12
i(vs) = 7.268739e-11
i(vb) = 1.527006e-17
Doing analysis at TEMP = 25.000000 and TNOM = 27.000000


No. of Data Rows : 1
abs(v(alim)) = 5.000000e-02
v(drain) = 7.000000e-01
v(gate) = 0.000000e+00
v(source) = 5.000000e-02
v(body) = 0.000000e+00
i(vd) = -8.31702e-11
i(vg) = 3.343865e-12
i(vs) = 7.982633e-11
i(vb) = 1.531506e-17
Doing analysis at TEMP = 25.000000 and TNOM = 27.000000


No. of Data Rows : 1
abs(v(alim)) = 5.000000e-02
v(drain) = 7.250000e-01
v(gate) = 0.000000e+00
v(source) = 5.000000e-02
v(body) = 0.000000e+00
i(vd) = -9.14384e-11
i(vg) = 3.773194e-12
i(vs) = 8.766515e-11
i(vb) = 1.536584e-17
Doing analysis at TEMP = 25.000000 and TNOM = 27.000000


No. of Data Rows : 1
abs(v(alim)) = 5.000000e-02
v(drain) = 7.500000e-01
v(gate) = 0.000000e+00
v(source) = 5.000000e-02
v(body) = 0.000000e+00
i(vd) = -1.00523e-10
i(vg) = 4.249463e-12
i(vs) = 9.627345e-11
i(vb) = 1.542311e-17
Doing analysis at TEMP = 25.000000 and TNOM = 27.000000


No. of Data Rows : 1
abs(v(alim)) = 5.000000e-02
v(drain) = 7.750000e-01
v(gate) = 0.000000e+00
v(source) = 5.000000e-02
v(body) = 0.000000e+00
i(vd) = -1.10505e-10
i(vg) = 4.777193e-12
i(vs) = 1.057281e-10
i(vb) = 1.548766e-17
Doing analysis at TEMP = 25.000000 and TNOM = 27.000000


No. of Data Rows : 1
abs(v(alim)) = 5.000000e-02
v(drain) = 8.000000e-01
v(gate) = 0.000000e+00
v(source) = 5.000000e-02
v(body) = 0.000000e+00
i(vd) = -1.21475e-10
i(vg) = 5.361302e-12
i(vs) = 1.161141e-10
i(vb) = 1.556035e-17
Doing analysis at TEMP = 25.000000 and TNOM = 27.000000


No. of Data Rows : 1
abs(v(alim)) = 5.000000e-02
v(drain) = 8.250000e-01
v(gate) = 0.000000e+00
v(source) = 5.000000e-02
v(body) = 0.000000e+00
i(vd) = -1.33533e-10
i(vg) = 6.007138e-12
i(vs) = 1.275254e-10
i(vb) = 1.564217e-17
Doing analysis at TEMP = 25.000000 and TNOM = 27.000000


No. of Data Rows : 1
abs(v(alim)) = 5.000000e-02
v(drain) = 8.500000e-01
v(gate) = 0.000000e+00
v(source) = 5.000000e-02
v(body) = 0.000000e+00
i(vd) = -1.46787e-10
i(vg) = 6.720520e-12
i(vs) = 1.400662e-10
i(vb) = 1.573420e-17
Doing analysis at TEMP = 25.000000 and TNOM = 27.000000


No. of Data Rows : 1
abs(v(alim)) = 5.000000e-02
v(drain) = 8.750000e-01
v(gate) = 0.000000e+00
v(source) = 5.000000e-02
v(body) = 0.000000e+00
i(vd) = -1.61360e-10
i(vg) = 7.507770e-12
i(vs) = 1.538518e-10
i(vb) = 1.583764e-17
Doing analysis at TEMP = 25.000000 and TNOM = 27.000000


No. of Data Rows : 1
abs(v(alim)) = 5.000000e-02
v(drain) = 9.000000e-01
v(gate) = 0.000000e+00
v(source) = 5.000000e-02
v(body) = 0.000000e+00
i(vd) = -1.77386e-10
i(vg) = 8.375759e-12
i(vs) = 1.690102e-10
i(vb) = 1.595385e-17
Doing analysis at TEMP = 25.000000 and TNOM = 27.000000


No. of Data Rows : 1
abs(v(alim)) = 5.000000e-02
v(drain) = 9.250000e-01
v(gate) = 0.000000e+00
v(source) = 5.000000e-02
v(body) = 0.000000e+00
i(vd) = -1.95015e-10
i(vg) = 9.331952e-12
i(vs) = 1.856834e-10
i(vb) = 1.608432e-17
Doing analysis at TEMP = 25.000000 and TNOM = 27.000000


No. of Data Rows : 1
abs(v(alim)) = 5.000000e-02
v(drain) = 9.500000e-01
v(gate) = 0.000000e+00
v(source) = 5.000000e-02
v(body) = 0.000000e+00
i(vd) = -2.14414e-10
i(vg) = 1.038445e-11
i(vs) = 2.040291e-10
i(vb) = 1.623072e-17
Doing analysis at TEMP = 25.000000 and TNOM = 27.000000


No. of Data Rows : 1
abs(v(alim)) = 5.000000e-02
v(drain) = 9.750000e-01
v(gate) = 0.000000e+00
v(source) = 5.000000e-02
v(body) = 0.000000e+00
i(vd) = -2.35765e-10
i(vg) = 1.154206e-11
i(vs) = 2.242228e-10
i(vb) = 1.660602e-17
Doing analysis at TEMP = 25.000000 and TNOM = 27.000000


No. of Data Rows : 1
abs(v(alim)) = 5.000000e-02
v(drain) = 1.000000e+00
v(gate) = 0.000000e+00
v(source) = 5.000000e-02
v(body) = 0.000000e+00
i(vd) = -2.59274e-10
i(vg) = 1.281432e-11
i(vs) = 2.464594e-10
i(vb) = 1.966748e-17
Doing analysis at TEMP = 25.000000 and TNOM = 27.000000


No. of Data Rows : 1
abs(v(alim)) = 5.000000e-02
v(drain) = 1.025000e+00
v(gate) = 0.000000e+00
v(source) = 5.000000e-02
v(body) = 0.000000e+00
i(vd) = -2.85167e-10
i(vg) = 1.421159e-11
i(vs) = 2.709558e-10
i(vb) = 2.841366e-17
Doing analysis at TEMP = 25.000000 and TNOM = 27.000000


No. of Data Rows : 1
abs(v(alim)) = 5.000000e-02
v(drain) = 1.050000e+00
v(gate) = 0.000000e+00
v(source) = 5.000000e-02
v(body) = 0.000000e+00
i(vd) = -3.13699e-10
i(vg) = 1.574510e-11
i(vs) = 2.979537e-10
i(vb) = 7.315694e-17
Doing analysis at TEMP = 25.000000 and TNOM = 27.000000


No. of Data Rows : 1
abs(v(alim)) = 5.000000e-02
v(drain) = 1.075000e+00
v(gate) = 0.000000e+00
v(source) = 5.000000e-02
v(body) = 0.000000e+00
i(vd) = -3.45150e-10
i(vg) = 1.742703e-11
i(vs) = 3.277222e-10
i(vb) = 5.802955e-16
Doing analysis at TEMP = 25.000000 and TNOM = 27.000000


No. of Data Rows : 1
abs(v(alim)) = 5.000000e-02
v(drain) = 1.100000e+00
v(gate) = 0.000000e+00
v(source) = 5.000000e-02
v(body) = 0.000000e+00
i(vd) = -3.79838e-10
i(vg) = 1.927059e-11
i(vs) = 3.605612e-10
i(vb) = 5.940651e-15
Doing analysis at TEMP = 25.000000 and TNOM = 27.000000


No. of Data Rows : 1
abs(v(alim)) = 5.000000e-02
v(drain) = 1.125000e+00
v(gate) = 0.000000e+00
v(source) = 5.000000e-02
v(body) = 0.000000e+00
i(vd) = -4.18142e-10
i(vg) = 2.129008e-11
i(vs) = 3.968051e-10
i(vb) = 4.721733e-14
Doing analysis at TEMP = 25.000000 and TNOM = 27.000000


No. of Data Rows : 1
abs(v(alim)) = 5.000000e-02
v(drain) = 1.150000e+00
v(gate) = 0.000000e+00
v(source) = 5.000000e-02
v(body) = 0.000000e+00
i(vd) = -4.60613e-10
i(vg) = 2.350099e-11
i(vs) = 4.368270e-10
i(vb) = 2.852244e-13
Doing analysis at TEMP = 25.000000 and TNOM = 27.000000


No. of Data Rows : 1
abs(v(alim)) = 7.500000e-02
v(drain) = 0.000000e+00
v(gate) = 0.000000e+00
v(source) = 7.500000e-02
v(body) = 0.000000e+00
i(vd) = 4.880308e-11
i(vg) = 2.327076e-14
i(vs) = -4.88264e-11
i(vb) = 7.636238e-18
Doing analysis at TEMP = 25.000000 and TNOM = 27.000000


No. of Data Rows : 1
abs(v(alim)) = 7.500000e-02
v(drain) = 2.500000e-02
v(gate) = 0.000000e+00
v(source) = 7.500000e-02
v(body) = 0.000000e+00
i(vd) = 1.751059e-11
i(vg) = 2.872358e-14
i(vs) = -1.75393e-11
i(vb) = 1.263233e-17
Doing analysis at TEMP = 25.000000 and TNOM = 27.000000


No. of Data Rows : 1
abs(v(alim)) = 7.500000e-02
v(drain) = 5.000000e-02
v(gate) = 0.000000e+00
v(source) = 7.500000e-02
v(body) = 0.000000e+00
i(vd) = 5.008530e-12
i(vg) = 3.636974e-14
i(vs) = -5.04491e-12
i(vb) = 1.452094e-17
Doing analysis at TEMP = 25.000000 and TNOM = 27.000000


No. of Data Rows : 1
abs(v(alim)) = 7.500000e-02
v(drain) = 7.500000e-02
v(gate) = 0.000000e+00
v(source) = 7.500000e-02
v(body) = 0.000000e+00
i(vd) = -2.32784e-14
i(vg) = 4.654152e-14
i(vs) = -2.32784e-14
i(vb) = 1.523388e-17
Doing analysis at TEMP = 25.000000 and TNOM = 27.000000


No. of Data Rows : 1
abs(v(alim)) = 7.500000e-02
v(drain) = 1.000000e-01
v(gate) = 0.000000e+00
v(source) = 7.500000e-02
v(body) = 0.000000e+00
i(vd) = -2.14110e-12
i(vg) = 5.960811e-14
i(vs) = 2.081476e-12
i(vb) = 1.550472e-17
Doing analysis at TEMP = 25.000000 and TNOM = 27.000000


No. of Data Rows : 1
abs(v(alim)) = 7.500000e-02
v(drain) = 1.250000e-01
v(gate) = 0.000000e+00
v(source) = 7.500000e-02
v(body) = 0.000000e+00
i(vd) = -3.14628e-12
i(vg) = 7.597919e-14
i(vs) = 3.070289e-12
i(vb) = 1.560757e-17
Doing analysis at TEMP = 25.000000 and TNOM = 27.000000


No. of Data Rows : 1
abs(v(alim)) = 7.500000e-02
v(drain) = 1.500000e-01
v(gate) = 0.000000e+00
v(source) = 7.500000e-02
v(body) = 0.000000e+00
i(vd) = -3.72303e-12
i(vg) = 9.610880e-14
i(vs) = 3.626901e-12
i(vb) = 1.564707e-17
Doing analysis at TEMP = 25.000000 and TNOM = 27.000000


No. of Data Rows : 1
abs(v(alim)) = 7.500000e-02
v(drain) = 1.750000e-01
v(gate) = 0.000000e+00
v(source) = 7.500000e-02
v(body) = 0.000000e+00
i(vd) = -4.20836e-12
i(vg) = 1.204996e-13
i(vs) = 4.087842e-12
i(vb) = 1.566273e-17
Doing analysis at TEMP = 25.000000 and TNOM = 27.000000


No. of Data Rows : 1
abs(v(alim)) = 7.500000e-02
v(drain) = 2.000000e-01
v(gate) = 0.000000e+00
v(source) = 7.500000e-02
v(body) = 0.000000e+00
i(vd) = -4.69614e-12
i(vg) = 1.497075e-13
i(vs) = 4.546420e-12
i(vb) = 1.566950e-17
Doing analysis at TEMP = 25.000000 and TNOM = 27.000000


No. of Data Rows : 1
abs(v(alim)) = 7.500000e-02
v(drain) = 2.250000e-01
v(gate) = 0.000000e+00
v(source) = 7.500000e-02
v(body) = 0.000000e+00
i(vd) = -5.21527e-12
i(vg) = 1.843463e-13
i(vs) = 5.030906e-12
i(vb) = 1.567304e-17
Doing analysis at TEMP = 25.000000 and TNOM = 27.000000


No. of Data Rows : 1
abs(v(alim)) = 7.500000e-02
v(drain) = 2.500000e-01
v(gate) = 0.000000e+00
v(source) = 7.500000e-02
v(body) = 0.000000e+00
i(vd) = -5.77883e-12
i(vg) = 2.250935e-13
i(vs) = 5.553720e-12
i(vb) = 1.567549e-17
Doing analysis at TEMP = 25.000000 and TNOM = 27.000000


No. of Data Rows : 1
abs(v(alim)) = 7.500000e-02
v(drain) = 2.750000e-01
v(gate) = 0.000000e+00
v(source) = 7.500000e-02
v(body) = 0.000000e+00
i(vd) = -6.39551e-12
i(vg) = 2.726958e-13
i(vs) = 6.122796e-12
i(vb) = 1.567770e-17
Doing analysis at TEMP = 25.000000 and TNOM = 27.000000


No. of Data Rows : 1
abs(v(alim)) = 7.500000e-02
v(drain) = 3.000000e-01
v(gate) = 0.000000e+00
v(source) = 7.500000e-02
v(body) = 0.000000e+00
i(vd) = -7.07271e-12
i(vg) = 3.279758e-13
i(vs) = 6.744718e-12
i(vb) = 1.568001e-17
Doing analysis at TEMP = 25.000000 and TNOM = 27.000000


No. of Data Rows : 1
abs(v(alim)) = 7.500000e-02
v(drain) = 3.250000e-01
v(gate) = 0.000000e+00
v(source) = 7.500000e-02
v(body) = 0.000000e+00
i(vd) = -7.81765e-12
i(vg) = 3.918384e-13
i(vs) = 7.425791e-12
i(vb) = 1.568256e-17
Doing analysis at TEMP = 25.000000 and TNOM = 27.000000


No. of Data Rows : 1
abs(v(alim)) = 7.500000e-02
v(drain) = 3.500000e-01
v(gate) = 0.000000e+00
v(source) = 7.500000e-02
v(body) = 0.000000e+00
i(vd) = -8.63778e-12
i(vg) = 4.652785e-13
i(vs) = 8.172486e-12
i(vb) = 1.568545e-17
Doing analysis at TEMP = 25.000000 and TNOM = 27.000000


No. of Data Rows : 1
abs(v(alim)) = 7.500000e-02
v(drain) = 3.750000e-01
v(gate) = 0.000000e+00
v(source) = 7.500000e-02
v(body) = 0.000000e+00
i(vd) = -9.54107e-12
i(vg) = 5.493892e-13
i(vs) = 8.991668e-12
i(vb) = 1.568873e-17
Doing analysis at TEMP = 25.000000 and TNOM = 27.000000


No. of Data Rows : 1
abs(v(alim)) = 7.500000e-02
v(drain) = 4.000000e-01
v(gate) = 0.000000e+00
v(source) = 7.500000e-02
v(body) = 0.000000e+00
i(vd) = -1.05361e-11
i(vg) = 6.453701e-13
i(vs) = 9.890734e-12
i(vb) = 1.569247e-17
Doing analysis at TEMP = 25.000000 and TNOM = 27.000000


No. of Data Rows : 1
abs(v(alim)) = 7.500000e-02
v(drain) = 4.250000e-01
v(gate) = 0.000000e+00
v(source) = 7.500000e-02
v(body) = 0.000000e+00
i(vd) = -1.16323e-11
i(vg) = 7.545375e-13
i(vs) = 1.087772e-11
i(vb) = 1.569674e-17
Doing analysis at TEMP = 25.000000 and TNOM = 27.000000


No. of Data Rows : 1
abs(v(alim)) = 7.500000e-02
v(drain) = 4.500000e-01
v(gate) = 0.000000e+00
v(source) = 7.500000e-02
v(body) = 0.000000e+00
i(vd) = -1.28398e-11
i(vg) = 8.783340e-13
i(vs) = 1.196141e-11
i(vb) = 1.570160e-17
Doing analysis at TEMP = 25.000000 and TNOM = 27.000000


No. of Data Rows : 1
abs(v(alim)) = 7.500000e-02
v(drain) = 4.750000e-01
v(gate) = 0.000000e+00
v(source) = 7.500000e-02
v(body) = 0.000000e+00
i(vd) = -1.41697e-11
i(vg) = 1.018340e-12
i(vs) = 1.315137e-11
i(vb) = 1.570713e-17
Doing analysis at TEMP = 25.000000 and TNOM = 27.000000


No. of Data Rows : 1
abs(v(alim)) = 7.500000e-02
v(drain) = 5.000000e-01
v(gate) = 0.000000e+00
v(source) = 7.500000e-02
v(body) = 0.000000e+00
i(vd) = -1.56344e-11
i(vg) = 1.176285e-12
i(vs) = 1.445814e-11
i(vb) = 1.571342e-17
Doing analysis at TEMP = 25.000000 and TNOM = 27.000000


No. of Data Rows : 1
abs(v(alim)) = 7.500000e-02
v(drain) = 5.250000e-01
v(gate) = 0.000000e+00
v(source) = 7.500000e-02
v(body) = 0.000000e+00
i(vd) = -1.72473e-11
i(vg) = 1.354062e-12
i(vs) = 1.589322e-11
i(vb) = 1.572056e-17
Doing analysis at TEMP = 25.000000 and TNOM = 27.000000


No. of Data Rows : 1
abs(v(alim)) = 7.500000e-02
v(drain) = 5.500000e-01
v(gate) = 0.000000e+00
v(source) = 7.500000e-02
v(body) = 0.000000e+00
i(vd) = -1.90230e-11
i(vg) = 1.553741e-12
i(vs) = 1.746925e-11
i(vb) = 1.572867e-17
Doing analysis at TEMP = 25.000000 and TNOM = 27.000000


No. of Data Rows : 1
abs(v(alim)) = 7.500000e-02
v(drain) = 5.750000e-01
v(gate) = 0.000000e+00
v(source) = 7.500000e-02
v(body) = 0.000000e+00
i(vd) = -2.09777e-11
i(vg) = 1.777582e-12
i(vs) = 1.920011e-11
i(vb) = 1.573787e-17
Doing analysis at TEMP = 25.000000 and TNOM = 27.000000


No. of Data Rows : 1
abs(v(alim)) = 7.500000e-02
v(drain) = 6.000000e-01
v(gate) = 0.000000e+00
v(source) = 7.500000e-02
v(body) = 0.000000e+00
i(vd) = -2.31291e-11
i(vg) = 2.028058e-12
i(vs) = 2.110105e-11
i(vb) = 1.574829e-17
Doing analysis at TEMP = 25.000000 and TNOM = 27.000000


No. of Data Rows : 1
abs(v(alim)) = 7.500000e-02
v(drain) = 6.250000e-01
v(gate) = 0.000000e+00
v(source) = 7.500000e-02
v(body) = 0.000000e+00
i(vd) = -2.54967e-11
i(vg) = 2.307863e-12
i(vs) = 2.318880e-11
i(vb) = 1.576009e-17
Doing analysis at TEMP = 25.000000 and TNOM = 27.000000


No. of Data Rows : 1
abs(v(alim)) = 7.500000e-02
v(drain) = 6.500000e-01
v(gate) = 0.000000e+00
v(source) = 7.500000e-02
v(body) = 0.000000e+00
i(vd) = -2.81018e-11
i(vg) = 2.619940e-12
i(vs) = 2.548180e-11
i(vb) = 1.577345e-17
Doing analysis at TEMP = 25.000000 and TNOM = 27.000000


No. of Data Rows : 1
abs(v(alim)) = 7.500000e-02
v(drain) = 6.750000e-01
v(gate) = 0.000000e+00
v(source) = 7.500000e-02
v(body) = 0.000000e+00
i(vd) = -3.09678e-11
i(vg) = 2.967499e-12
i(vs) = 2.800031e-11
i(vb) = 1.578855e-17
Doing analysis at TEMP = 25.000000 and TNOM = 27.000000


No. of Data Rows : 1
abs(v(alim)) = 7.500000e-02
v(drain) = 7.000000e-01
v(gate) = 0.000000e+00
v(source) = 7.500000e-02
v(body) = 0.000000e+00
i(vd) = -3.41207e-11
i(vg) = 3.354037e-12
i(vs) = 3.076667e-11
i(vb) = 1.580561e-17
Doing analysis at TEMP = 25.000000 and TNOM = 27.000000


No. of Data Rows : 1
abs(v(alim)) = 7.500000e-02
v(drain) = 7.250000e-01
v(gate) = 0.000000e+00
v(source) = 7.500000e-02
v(body) = 0.000000e+00
i(vd) = -3.75889e-11
i(vg) = 3.783365e-12
i(vs) = 3.380548e-11
i(vb) = 1.582487e-17
Doing analysis at TEMP = 25.000000 and TNOM = 27.000000


No. of Data Rows : 1
abs(v(alim)) = 7.500000e-02
v(drain) = 7.500000e-01
v(gate) = 0.000000e+00
v(source) = 7.500000e-02
v(body) = 0.000000e+00
i(vd) = -4.14035e-11
i(vg) = 4.259635e-12
i(vs) = 3.714390e-11
i(vb) = 1.584661e-17
Doing analysis at TEMP = 25.000000 and TNOM = 27.000000


No. of Data Rows : 1
abs(v(alim)) = 7.500000e-02
v(drain) = 7.750000e-01
v(gate) = 0.000000e+00
v(source) = 7.500000e-02
v(body) = 0.000000e+00
i(vd) = -4.55993e-11
i(vg) = 4.787365e-12
i(vs) = 4.081191e-11
i(vb) = 1.587112e-17
Doing analysis at TEMP = 25.000000 and TNOM = 27.000000


No. of Data Rows : 1
abs(v(alim)) = 7.500000e-02
v(drain) = 8.000000e-01
v(gate) = 0.000000e+00
v(source) = 7.500000e-02
v(body) = 0.000000e+00
i(vd) = -5.02141e-11
i(vg) = 5.371473e-12
i(vs) = 4.484266e-11
i(vb) = 1.589875e-17
Doing analysis at TEMP = 25.000000 and TNOM = 27.000000


No. of Data Rows : 1
abs(v(alim)) = 7.500000e-02
v(drain) = 8.250000e-01
v(gate) = 0.000000e+00
v(source) = 7.500000e-02
v(body) = 0.000000e+00
i(vd) = -5.52901e-11
i(vg) = 6.017310e-12
i(vs) = 4.927279e-11
i(vb) = 1.592985e-17
Doing analysis at TEMP = 25.000000 and TNOM = 27.000000


No. of Data Rows : 1
abs(v(alim)) = 7.500000e-02
v(drain) = 8.500000e-01
v(gate) = 0.000000e+00
v(source) = 7.500000e-02
v(body) = 0.000000e+00
i(vd) = -6.08736e-11
i(vg) = 6.730691e-12
i(vs) = 5.414287e-11
i(vb) = 1.596487e-17
Doing analysis at TEMP = 25.000000 and TNOM = 27.000000


No. of Data Rows : 1
abs(v(alim)) = 7.500000e-02
v(drain) = 8.750000e-01
v(gate) = 0.000000e+00
v(source) = 7.500000e-02
v(body) = 0.000000e+00
i(vd) = -6.70158e-11
i(vg) = 7.517941e-12
i(vs) = 5.949789e-11
i(vb) = 1.600425e-17
Doing analysis at TEMP = 25.000000 and TNOM = 27.000000


No. of Data Rows : 1
abs(v(alim)) = 7.500000e-02
v(drain) = 9.000000e-01
v(gate) = 0.000000e+00
v(source) = 7.500000e-02
v(body) = 0.000000e+00
i(vd) = -7.37736e-11
i(vg) = 8.385931e-12
i(vs) = 6.538768e-11
i(vb) = 1.604853e-17
Doing analysis at TEMP = 25.000000 and TNOM = 27.000000


No. of Data Rows : 1
abs(v(alim)) = 7.500000e-02
v(drain) = 9.250000e-01
v(gate) = 0.000000e+00
v(source) = 7.500000e-02
v(body) = 0.000000e+00
i(vd) = -8.12097e-11
i(vg) = 9.342124e-12
i(vs) = 7.186759e-11
i(vb) = 1.609828e-17
Doing analysis at TEMP = 25.000000 and TNOM = 27.000000


No. of Data Rows : 1
abs(v(alim)) = 7.500000e-02
v(drain) = 9.500000e-01
v(gate) = 0.000000e+00
v(source) = 7.500000e-02
v(body) = 0.000000e+00
i(vd) = -8.93937e-11
i(vg) = 1.039462e-11
i(vs) = 7.899908e-11
i(vb) = 1.615416e-17
Doing analysis at TEMP = 25.000000 and TNOM = 27.000000


No. of Data Rows : 1
abs(v(alim)) = 7.500000e-02
v(drain) = 9.750000e-01
v(gate) = 0.000000e+00
v(source) = 7.500000e-02
v(body) = 0.000000e+00
i(vd) = -9.84027e-11
i(vg) = 1.155223e-11
i(vs) = 8.685045e-11
i(vb) = 1.621690e-17
Doing analysis at TEMP = 25.000000 and TNOM = 27.000000


No. of Data Rows : 1
abs(v(alim)) = 7.500000e-02
v(drain) = 1.000000e+00
v(gate) = 0.000000e+00
v(source) = 7.500000e-02
v(body) = 0.000000e+00
i(vd) = -1.08322e-10
i(vg) = 1.282449e-11
i(vs) = 9.549768e-11
i(vb) = 1.638337e-17
Doing analysis at TEMP = 25.000000 and TNOM = 27.000000


No. of Data Rows : 1
abs(v(alim)) = 7.500000e-02
v(drain) = 1.025000e+00
v(gate) = 0.000000e+00
v(source) = 7.500000e-02
v(body) = 0.000000e+00
i(vd) = -1.19247e-10
i(vg) = 1.422176e-11
i(vs) = 1.050253e-10
i(vb) = 1.835621e-17
Doing analysis at TEMP = 25.000000 and TNOM = 27.000000


No. of Data Rows : 1
abs(v(alim)) = 7.500000e-02
v(drain) = 1.050000e+00
v(gate) = 0.000000e+00
v(source) = 7.500000e-02
v(body) = 0.000000e+00
i(vd) = -1.31283e-10
i(vg) = 1.575527e-11
i(vs) = 1.155275e-10
i(vb) = 4.616434e-17
Doing analysis at TEMP = 25.000000 and TNOM = 27.000000


No. of Data Rows : 1
abs(v(alim)) = 7.500000e-02
v(drain) = 1.075000e+00
v(gate) = 0.000000e+00
v(source) = 7.500000e-02
v(body) = 0.000000e+00
i(vd) = -1.44547e-10
i(vg) = 1.743720e-11
i(vs) = 1.271092e-10
i(vb) = 5.127295e-16
Doing analysis at TEMP = 25.000000 and TNOM = 27.000000


No. of Data Rows : 1
abs(v(alim)) = 7.500000e-02
v(drain) = 1.100000e+00
v(gate) = 0.000000e+00
v(source) = 7.500000e-02
v(body) = 0.000000e+00
i(vd) = -1.59174e-10
i(vg) = 1.928076e-11
i(vs) = 1.398873e-10
i(vb) = 5.779640e-15
Doing analysis at TEMP = 25.000000 and TNOM = 27.000000


No. of Data Rows : 1
abs(v(alim)) = 7.500000e-02
v(drain) = 1.125000e+00
v(gate) = 0.000000e+00
v(source) = 7.500000e-02
v(body) = 0.000000e+00
i(vd) = -1.75339e-10
i(vg) = 2.130025e-11
i(vs) = 1.539923e-10
i(vb) = 4.684883e-14
Doing analysis at TEMP = 25.000000 and TNOM = 27.000000


No. of Data Rows : 1
abs(v(alim)) = 7.500000e-02
v(drain) = 1.150000e+00
v(gate) = 0.000000e+00
v(source) = 7.500000e-02
v(body) = 0.000000e+00
i(vd) = -1.93365e-10
i(vg) = 2.351116e-11
i(vs) = 1.695697e-10
i(vb) = 2.844105e-13
Doing analysis at TEMP = 25.000000 and TNOM = 27.000000


No. of Data Rows : 1
abs(v(alim)) = 1.000000e-01
v(drain) = 0.000000e+00
v(gate) = 0.000000e+00
v(source) = 1.000000e-01
v(body) = 0.000000e+00
i(vd) = 5.489149e-11
i(vg) = 3.633735e-14
i(vs) = -5.49278e-11
i(vb) = 7.917857e-18
Doing analysis at TEMP = 25.000000 and TNOM = 27.000000


No. of Data Rows : 1
abs(v(alim)) = 1.000000e-01
v(drain) = 2.500000e-02
v(gate) = 0.000000e+00
v(source) = 1.000000e-01
v(body) = 0.000000e+00
i(vd) = 2.064066e-11
i(vg) = 4.179017e-14
i(vs) = -2.06825e-11
i(vb) = 1.290658e-17
Doing analysis at TEMP = 25.000000 and TNOM = 27.000000


No. of Data Rows : 1
abs(v(alim)) = 1.000000e-01
v(drain) = 5.000000e-02
v(gate) = 0.000000e+00
v(source) = 1.000000e-01
v(body) = 0.000000e+00
i(vd) = 7.361874e-12
i(vg) = 4.943633e-14
i(vs) = -7.41132e-12
i(vb) = 1.479257e-17
Doing analysis at TEMP = 25.000000 and TNOM = 27.000000


No. of Data Rows : 1
abs(v(alim)) = 1.000000e-01
v(drain) = 7.500000e-02
v(gate) = 0.000000e+00
v(source) = 1.000000e-01
v(body) = 0.000000e+00
i(vd) = 2.081476e-12
i(vg) = 5.960811e-14
i(vs) = -2.14110e-12
i(vb) = 1.550472e-17
Doing analysis at TEMP = 25.000000 and TNOM = 27.000000


No. of Data Rows : 1
abs(v(alim)) = 1.000000e-01
v(drain) = 1.000000e-01
v(gate) = 0.000000e+00
v(source) = 1.000000e-01
v(body) = 0.000000e+00
i(vd) = -3.63452e-14
i(vg) = 7.267471e-14
i(vs) = -3.63452e-14
i(vb) = 1.577273e-17
Doing analysis at TEMP = 25.000000 and TNOM = 27.000000


No. of Data Rows : 1
abs(v(alim)) = 1.000000e-01
v(drain) = 1.250000e-01
v(gate) = 0.000000e+00
v(source) = 1.000000e-01
v(body) = 0.000000e+00
i(vd) = -9.31932e-13
i(vg) = 8.904578e-14
i(vs) = 8.428699e-13
i(vb) = 1.587525e-17
Doing analysis at TEMP = 25.000000 and TNOM = 27.000000


No. of Data Rows : 1
abs(v(alim)) = 1.000000e-01
v(drain) = 1.500000e-01
v(gate) = 0.000000e+00
v(source) = 1.000000e-01
v(body) = 0.000000e+00
i(vd) = -1.36608e-12
i(vg) = 1.091754e-13
i(vs) = 1.256892e-12
i(vb) = 1.591429e-17
Doing analysis at TEMP = 25.000000 and TNOM = 27.000000


No. of Data Rows : 1
abs(v(alim)) = 1.000000e-01
v(drain) = 1.750000e-01
v(gate) = 0.000000e+00
v(source) = 1.000000e-01
v(body) = 0.000000e+00
i(vd) = -1.62388e-12
i(vg) = 1.335662e-13
i(vs) = 1.490299e-12
i(vb) = 1.592940e-17
Doing analysis at TEMP = 25.000000 and TNOM = 27.000000


No. of Data Rows : 1
abs(v(alim)) = 1.000000e-01
v(drain) = 2.000000e-01
v(gate) = 0.000000e+00
v(source) = 1.000000e-01
v(body) = 0.000000e+00
i(vd) = -1.84654e-12
i(vg) = 1.627740e-13
i(vs) = 1.683748e-12
i(vb) = 1.593551e-17
Doing analysis at TEMP = 25.000000 and TNOM = 27.000000


No. of Data Rows : 1
abs(v(alim)) = 1.000000e-01
v(drain) = 2.250000e-01
v(gate) = 0.000000e+00
v(source) = 1.000000e-01
v(body) = 0.000000e+00
i(vd) = -2.07375e-12
i(vg) = 1.974128e-13
i(vs) = 1.876320e-12
i(vb) = 1.593826e-17
Doing analysis at TEMP = 25.000000 and TNOM = 27.000000


No. of Data Rows : 1
abs(v(alim)) = 1.000000e-01
v(drain) = 2.500000e-01
v(gate) = 0.000000e+00
v(source) = 1.000000e-01
v(body) = 0.000000e+00
i(vd) = -2.31805e-12
i(vg) = 2.381600e-13
i(vs) = 2.079873e-12
i(vb) = 1.593980e-17
Doing analysis at TEMP = 25.000000 and TNOM = 27.000000


No. of Data Rows : 1
abs(v(alim)) = 1.000000e-01
v(drain) = 2.750000e-01
v(gate) = 0.000000e+00
v(source) = 1.000000e-01
v(body) = 0.000000e+00
i(vd) = -2.58541e-12
i(vg) = 2.857624e-13
i(vs) = 2.299627e-12
i(vb) = 1.594094e-17
Doing analysis at TEMP = 25.000000 and TNOM = 27.000000


No. of Data Rows : 1
abs(v(alim)) = 1.000000e-01
v(drain) = 3.000000e-01
v(gate) = 0.000000e+00
v(source) = 1.000000e-01
v(body) = 0.000000e+00
i(vd) = -2.87999e-12
i(vg) = 3.410424e-13
i(vs) = 2.538929e-12
i(vb) = 1.594200e-17
Doing analysis at TEMP = 25.000000 and TNOM = 27.000000


No. of Data Rows : 1
abs(v(alim)) = 1.000000e-01
v(drain) = 3.250000e-01
v(gate) = 0.000000e+00
v(source) = 1.000000e-01
v(body) = 0.000000e+00
i(vd) = -3.20548e-12
i(vg) = 4.049050e-13
i(vs) = 2.800560e-12
i(vb) = 1.594311e-17
Doing analysis at TEMP = 25.000000 and TNOM = 27.000000


No. of Data Rows : 1
abs(v(alim)) = 1.000000e-01
v(drain) = 3.500000e-01
v(gate) = 0.000000e+00
v(source) = 1.000000e-01
v(body) = 0.000000e+00
i(vd) = -3.56555e-12
i(vg) = 4.783451e-13
i(vs) = 3.087190e-12
i(vb) = 1.594433e-17
Doing analysis at TEMP = 25.000000 and TNOM = 27.000000


No. of Data Rows : 1
abs(v(alim)) = 1.000000e-01
v(drain) = 3.750000e-01
v(gate) = 0.000000e+00
v(source) = 1.000000e-01
v(body) = 0.000000e+00
i(vd) = -3.96404e-12
i(vg) = 5.624557e-13
i(vs) = 3.401565e-12
i(vb) = 1.594568e-17
Doing analysis at TEMP = 25.000000 and TNOM = 27.000000


No. of Data Rows : 1
abs(v(alim)) = 1.000000e-01
v(drain) = 4.000000e-01
v(gate) = 0.000000e+00
v(source) = 1.000000e-01
v(body) = 0.000000e+00
i(vd) = -4.40505e-12
i(vg) = 6.584367e-13
i(vs) = 3.746596e-12
i(vb) = 1.594721e-17
Doing analysis at TEMP = 25.000000 and TNOM = 27.000000


No. of Data Rows : 1
abs(v(alim)) = 1.000000e-01
v(drain) = 4.250000e-01
v(gate) = 0.000000e+00
v(source) = 1.000000e-01
v(body) = 0.000000e+00
i(vd) = -4.89305e-12
i(vg) = 7.676041e-13
i(vs) = 4.125426e-12
i(vb) = 1.594893e-17
Doing analysis at TEMP = 25.000000 and TNOM = 27.000000


No. of Data Rows : 1
abs(v(alim)) = 1.000000e-01
v(drain) = 4.500000e-01
v(gate) = 0.000000e+00
v(source) = 1.000000e-01
v(body) = 0.000000e+00
i(vd) = -5.43289e-12
i(vg) = 8.914005e-13
i(vs) = 4.541471e-12
i(vb) = 1.595087e-17
Doing analysis at TEMP = 25.000000 and TNOM = 27.000000


No. of Data Rows : 1
abs(v(alim)) = 1.000000e-01
v(drain) = 4.750000e-01
v(gate) = 0.000000e+00
v(source) = 1.000000e-01
v(body) = 0.000000e+00
i(vd) = -6.02988e-12
i(vg) = 1.031406e-12
i(vs) = 4.998460e-12
i(vb) = 1.595306e-17
Doing analysis at TEMP = 25.000000 and TNOM = 27.000000


No. of Data Rows : 1
abs(v(alim)) = 1.000000e-01
v(drain) = 5.000000e-01
v(gate) = 0.000000e+00
v(source) = 1.000000e-01
v(body) = 0.000000e+00
i(vd) = -6.68984e-12
i(vg) = 1.189351e-12
i(vs) = 5.500474e-12
i(vb) = 1.595553e-17
Doing analysis at TEMP = 25.000000 and TNOM = 27.000000


No. of Data Rows : 1
abs(v(alim)) = 1.000000e-01
v(drain) = 5.250000e-01
v(gate) = 0.000000e+00
v(source) = 1.000000e-01
v(body) = 0.000000e+00
i(vd) = -7.41913e-12
i(vg) = 1.367128e-12
i(vs) = 6.051986e-12
i(vb) = 1.595832e-17
Doing analysis at TEMP = 25.000000 and TNOM = 27.000000


No. of Data Rows : 1
abs(v(alim)) = 1.000000e-01
v(drain) = 5.500000e-01
v(gate) = 0.000000e+00
v(source) = 1.000000e-01
v(body) = 0.000000e+00
i(vd) = -8.22473e-12
i(vg) = 1.566807e-12
i(vs) = 6.657903e-12
i(vb) = 1.596148e-17
Doing analysis at TEMP = 25.000000 and TNOM = 27.000000


No. of Data Rows : 1
abs(v(alim)) = 1.000000e-01
v(drain) = 5.750000e-01
v(gate) = 0.000000e+00
v(source) = 1.000000e-01
v(body) = 0.000000e+00
i(vd) = -9.11427e-12
i(vg) = 1.790649e-12
i(vs) = 7.323610e-12
i(vb) = 1.596504e-17
Doing analysis at TEMP = 25.000000 and TNOM = 27.000000


No. of Data Rows : 1
abs(v(alim)) = 1.000000e-01
v(drain) = 6.000000e-01
v(gate) = 0.000000e+00
v(source) = 1.000000e-01
v(body) = 0.000000e+00
i(vd) = -1.00962e-11
i(vg) = 2.041124e-12
i(vs) = 8.055023e-12
i(vb) = 1.596907e-17
Doing analysis at TEMP = 25.000000 and TNOM = 27.000000


No. of Data Rows : 1
abs(v(alim)) = 1.000000e-01
v(drain) = 6.250000e-01
v(gate) = 0.000000e+00
v(source) = 1.000000e-01
v(body) = 0.000000e+00
i(vd) = -1.11796e-11
i(vg) = 2.320930e-12
i(vs) = 8.858641e-12
i(vb) = 1.597361e-17
Doing analysis at TEMP = 25.000000 and TNOM = 27.000000


No. of Data Rows : 1
abs(v(alim)) = 1.000000e-01
v(drain) = 6.500000e-01
v(gate) = 0.000000e+00
v(source) = 1.000000e-01
v(body) = 0.000000e+00
i(vd) = -1.23746e-11
i(vg) = 2.633007e-12
i(vs) = 9.741613e-12
i(vb) = 1.597874e-17
Doing analysis at TEMP = 25.000000 and TNOM = 27.000000


No. of Data Rows : 1
abs(v(alim)) = 1.000000e-01
v(drain) = 6.750000e-01
v(gate) = 0.000000e+00
v(source) = 1.000000e-01
v(body) = 0.000000e+00
i(vd) = -1.36924e-11
i(vg) = 2.980566e-12
i(vs) = 1.071180e-11
i(vb) = 1.598453e-17
Doing analysis at TEMP = 25.000000 and TNOM = 27.000000


No. of Data Rows : 1
abs(v(alim)) = 1.000000e-01
v(drain) = 7.000000e-01
v(gate) = 0.000000e+00
v(source) = 1.000000e-01
v(body) = 0.000000e+00
i(vd) = -1.51450e-11
i(vg) = 3.367104e-12
i(vs) = 1.177787e-11
i(vb) = 1.599105e-17
Doing analysis at TEMP = 25.000000 and TNOM = 27.000000


No. of Data Rows : 1
abs(v(alim)) = 1.000000e-01
v(drain) = 7.250000e-01
v(gate) = 0.000000e+00
v(source) = 1.000000e-01
v(body) = 0.000000e+00
i(vd) = -1.67458e-11
i(vg) = 3.796432e-12
i(vs) = 1.294936e-11
i(vb) = 1.599841e-17
Doing analysis at TEMP = 25.000000 and TNOM = 27.000000


No. of Data Rows : 1
abs(v(alim)) = 1.000000e-01
v(drain) = 7.500000e-01
v(gate) = 0.000000e+00
v(source) = 1.000000e-01
v(body) = 0.000000e+00
i(vd) = -1.85095e-11
i(vg) = 4.272702e-12
i(vs) = 1.423680e-11
i(vb) = 1.600671e-17
Doing analysis at TEMP = 25.000000 and TNOM = 27.000000


No. of Data Rows : 1
abs(v(alim)) = 1.000000e-01
v(drain) = 7.750000e-01
v(gate) = 0.000000e+00
v(source) = 1.000000e-01
v(body) = 0.000000e+00
i(vd) = -2.04523e-11
i(vg) = 4.800432e-12
i(vs) = 1.565181e-11
i(vb) = 1.601605e-17
Doing analysis at TEMP = 25.000000 and TNOM = 27.000000


No. of Data Rows : 1
abs(v(alim)) = 1.000000e-01
v(drain) = 8.000000e-01
v(gate) = 0.000000e+00
v(source) = 1.000000e-01
v(body) = 0.000000e+00
i(vd) = -2.25918e-11
i(vg) = 5.384540e-12
i(vs) = 1.720721e-11
i(vb) = 1.602658e-17
Doing analysis at TEMP = 25.000000 and TNOM = 27.000000


No. of Data Rows : 1
abs(v(alim)) = 1.000000e-01
v(drain) = 8.250000e-01
v(gate) = 0.000000e+00
v(source) = 1.000000e-01
v(body) = 0.000000e+00
i(vd) = -2.49476e-11
i(vg) = 6.030376e-12
i(vs) = 1.891720e-11
i(vb) = 1.603843e-17
Doing analysis at TEMP = 25.000000 and TNOM = 27.000000


No. of Data Rows : 1
abs(v(alim)) = 1.000000e-01
v(drain) = 8.500000e-01
v(gate) = 0.000000e+00
v(source) = 1.000000e-01
v(body) = 0.000000e+00
i(vd) = -2.75413e-11
i(vg) = 6.743758e-12
i(vs) = 2.079748e-11
i(vb) = 1.605176e-17
Doing analysis at TEMP = 25.000000 and TNOM = 27.000000


No. of Data Rows : 1
abs(v(alim)) = 1.000000e-01
v(drain) = 8.750000e-01
v(gate) = 0.000000e+00
v(source) = 1.000000e-01
v(body) = 0.000000e+00
i(vd) = -3.03965e-11
i(vg) = 7.531008e-12
i(vs) = 2.286545e-11
i(vb) = 1.606675e-17
Doing analysis at TEMP = 25.000000 and TNOM = 27.000000


No. of Data Rows : 1
abs(v(alim)) = 1.000000e-01
v(drain) = 9.000000e-01
v(gate) = 0.000000e+00
v(source) = 1.000000e-01
v(body) = 0.000000e+00
i(vd) = -3.35394e-11
i(vg) = 8.398998e-12
i(vs) = 2.514040e-11
i(vb) = 1.608360e-17
Doing analysis at TEMP = 25.000000 and TNOM = 27.000000


No. of Data Rows : 1
abs(v(alim)) = 1.000000e-01
v(drain) = 9.250000e-01
v(gate) = 0.000000e+00
v(source) = 1.000000e-01
v(body) = 0.000000e+00
i(vd) = -3.69989e-11
i(vg) = 9.355190e-12
i(vs) = 2.764372e-11
i(vb) = 1.610254e-17
Doing analysis at TEMP = 25.000000 and TNOM = 27.000000


No. of Data Rows : 1
abs(v(alim)) = 1.000000e-01
v(drain) = 9.500000e-01
v(gate) = 0.000000e+00
v(source) = 1.000000e-01
v(body) = 0.000000e+00
i(vd) = -4.08069e-11
i(vg) = 1.040769e-11
i(vs) = 3.039917e-11
i(vb) = 1.612382e-17
Doing analysis at TEMP = 25.000000 and TNOM = 27.000000


No. of Data Rows : 1
abs(v(alim)) = 1.000000e-01
v(drain) = 9.750000e-01
v(gate) = 0.000000e+00
v(source) = 1.000000e-01
v(body) = 0.000000e+00
i(vd) = -4.49985e-11
i(vg) = 1.156530e-11
i(vs) = 3.343315e-11
i(vb) = 1.614773e-17
Doing analysis at TEMP = 25.000000 and TNOM = 27.000000


No. of Data Rows : 1
abs(v(alim)) = 1.000000e-01
v(drain) = 1.000000e+00
v(gate) = 0.000000e+00
v(source) = 1.000000e-01
v(body) = 0.000000e+00
i(vd) = -4.96126e-11
i(vg) = 1.283755e-11
i(vs) = 3.677502e-11
i(vb) = 1.618213e-17
Doing analysis at TEMP = 25.000000 and TNOM = 27.000000


No. of Data Rows : 1
abs(v(alim)) = 1.000000e-01
v(drain) = 1.025000e+00
v(gate) = 0.000000e+00
v(source) = 1.000000e-01
v(body) = 0.000000e+00
i(vd) = -5.46923e-11
i(vg) = 1.423482e-11
i(vs) = 4.045746e-11
i(vb) = 1.692236e-17
Doing analysis at TEMP = 25.000000 and TNOM = 27.000000


No. of Data Rows : 1
abs(v(alim)) = 1.000000e-01
v(drain) = 1.050000e+00
v(gate) = 0.000000e+00
v(source) = 1.000000e-01
v(body) = 0.000000e+00
i(vd) = -6.02852e-11
i(vg) = 1.576834e-11
i(vs) = 4.451685e-11
i(vb) = 4.184330e-17
Doing analysis at TEMP = 25.000000 and TNOM = 27.000000


No. of Data Rows : 1
abs(v(alim)) = 1.000000e-01
v(drain) = 1.075000e+00
v(gate) = 0.000000e+00
v(source) = 1.000000e-01
v(body) = 0.000000e+00
i(vd) = -6.64445e-11
i(vg) = 1.745027e-11
i(vs) = 4.899374e-11
i(vb) = 5.011844e-16
Doing analysis at TEMP = 25.000000 and TNOM = 27.000000


No. of Data Rows : 1
abs(v(alim)) = 1.000000e-01
v(drain) = 1.100000e+00
v(gate) = 0.000000e+00
v(source) = 1.000000e-01
v(body) = 0.000000e+00
i(vd) = -7.32329e-11
i(vg) = 1.929383e-11
i(vs) = 5.393331e-11
i(vb) = 5.750774e-15
Doing analysis at TEMP = 25.000000 and TNOM = 27.000000


No. of Data Rows : 1
abs(v(alim)) = 1.000000e-01
v(drain) = 1.125000e+00
v(gate) = 0.000000e+00
v(source) = 1.000000e-01
v(body) = 0.000000e+00
i(vd) = -8.07461e-11
i(vg) = 2.131331e-11
i(vs) = 5.938598e-11
i(vb) = 4.678004e-14
Doing analysis at TEMP = 25.000000 and TNOM = 27.000000


No. of Data Rows : 1
abs(v(alim)) = 1.000000e-01
v(drain) = 1.150000e+00
v(gate) = 0.000000e+00
v(source) = 1.000000e-01
v(body) = 0.000000e+00
i(vd) = -8.92165e-11
i(vg) = 2.352423e-11
i(vs) = 6.540802e-11
i(vb) = 2.842530e-13
Doing analysis at TEMP = 25.000000 and TNOM = 27.000000


No. of Data Rows : 1
abs(v(alim)) = 1.250000e-01
v(drain) = 0.000000e+00
v(gate) = 0.000000e+00
v(source) = 1.250000e-01
v(body) = 0.000000e+00
i(vd) = 6.093545e-11
i(vg) = 5.270842e-14
i(vs) = -6.09882e-11
i(vb) = 8.033653e-18
Doing analysis at TEMP = 25.000000 and TNOM = 27.000000


No. of Data Rows : 1
abs(v(alim)) = 1.250000e-01
v(drain) = 2.500000e-02
v(gate) = 0.000000e+00
v(source) = 1.250000e-01
v(body) = 0.000000e+00
i(vd) = 2.322780e-11
i(vg) = 5.816125e-14
i(vs) = -2.32860e-11
i(vb) = 1.301366e-17
Doing analysis at TEMP = 25.000000 and TNOM = 27.000000


No. of Data Rows : 1
abs(v(alim)) = 1.250000e-01
v(drain) = 5.000000e-02
v(gate) = 0.000000e+00
v(source) = 1.250000e-01
v(body) = 0.000000e+00
i(vd) = 8.684452e-12
i(vg) = 6.580740e-14
i(vs) = -8.75027e-12
i(vb) = 1.489652e-17
Doing analysis at TEMP = 25.000000 and TNOM = 27.000000


No. of Data Rows : 1
abs(v(alim)) = 1.250000e-01
v(drain) = 7.500000e-02
v(gate) = 0.000000e+00
v(source) = 1.250000e-01
v(body) = 0.000000e+00
i(vd) = 3.070289e-12
i(vg) = 7.597919e-14
i(vs) = -3.14628e-12
i(vb) = 1.560757e-17
Doing analysis at TEMP = 25.000000 and TNOM = 27.000000


No. of Data Rows : 1
abs(v(alim)) = 1.250000e-01
v(drain) = 1.000000e-01
v(gate) = 0.000000e+00
v(source) = 1.250000e-01
v(body) = 0.000000e+00
i(vd) = 8.428699e-13
i(vg) = 8.904578e-14
i(vs) = -9.31932e-13
i(vb) = 1.587525e-17
Doing analysis at TEMP = 25.000000 and TNOM = 27.000000


No. of Data Rows : 1
abs(v(alim)) = 1.250000e-01
v(drain) = 1.250000e-01
v(gate) = 0.000000e+00
v(source) = 1.250000e-01
v(body) = 0.000000e+00
i(vd) = -5.27164e-14
i(vg) = 1.054169e-13
i(vs) = -5.27164e-14
i(vb) = 1.597520e-17
Doing analysis at TEMP = 25.000000 and TNOM = 27.000000


No. of Data Rows : 1
abs(v(alim)) = 1.250000e-01
v(drain) = 1.500000e-01
v(gate) = 0.000000e+00
v(source) = 1.250000e-01
v(body) = 0.000000e+00
i(vd) = -4.38981e-13
i(vg) = 1.255465e-13
i(vs) = 3.134187e-13
i(vb) = 1.601410e-17
Doing analysis at TEMP = 25.000000 and TNOM = 27.000000


No. of Data Rows : 1
abs(v(alim)) = 1.250000e-01
v(drain) = 1.750000e-01
v(gate) = 0.000000e+00
v(source) = 1.250000e-01
v(body) = 0.000000e+00
i(vd) = -6.36168e-13
i(vg) = 1.499373e-13
i(vs) = 4.862151e-13
i(vb) = 1.602902e-17
Doing analysis at TEMP = 25.000000 and TNOM = 27.000000


No. of Data Rows : 1
abs(v(alim)) = 1.250000e-01
v(drain) = 2.000000e-01
v(gate) = 0.000000e+00
v(source) = 1.250000e-01
v(body) = 0.000000e+00
i(vd) = -7.62929e-13
i(vg) = 1.791451e-13
i(vs) = 5.837679e-13
i(vb) = 1.603489e-17
Doing analysis at TEMP = 25.000000 and TNOM = 27.000000


No. of Data Rows : 1
abs(v(alim)) = 1.250000e-01
v(drain) = 2.250000e-01
v(gate) = 0.000000e+00
v(source) = 1.250000e-01
v(body) = 0.000000e+00
i(vd) = -8.78482e-13
i(vg) = 2.137839e-13
i(vs) = 6.646824e-13
i(vb) = 1.603737e-17
Doing analysis at TEMP = 25.000000 and TNOM = 27.000000


No. of Data Rows : 1
abs(v(alim)) = 1.250000e-01
v(drain) = 2.500000e-01
v(gate) = 0.000000e+00
v(source) = 1.250000e-01
v(body) = 0.000000e+00
i(vd) = -9.99822e-13
i(vg) = 2.545311e-13
i(vs) = 7.452753e-13
i(vb) = 1.603858e-17
Doing analysis at TEMP = 25.000000 and TNOM = 27.000000


No. of Data Rows : 1
abs(v(alim)) = 1.250000e-01
v(drain) = 2.750000e-01
v(gate) = 0.000000e+00
v(source) = 1.250000e-01
v(body) = 0.000000e+00
i(vd) = -1.13265e-12
i(vg) = 3.021335e-13
i(vs) = 8.305033e-13
i(vb) = 1.603934e-17
Doing analysis at TEMP = 25.000000 and TNOM = 27.000000


No. of Data Rows : 1
abs(v(alim)) = 1.250000e-01
v(drain) = 3.000000e-01
v(gate) = 0.000000e+00
v(source) = 1.250000e-01
v(body) = 0.000000e+00
i(vd) = -1.27998e-12
i(vg) = 3.574135e-13
i(vs) = 9.225534e-13
i(vb) = 1.603995e-17
Doing analysis at TEMP = 25.000000 and TNOM = 27.000000


No. of Data Rows : 1
abs(v(alim)) = 1.250000e-01
v(drain) = 3.250000e-01
v(gate) = 0.000000e+00
v(source) = 1.250000e-01
v(body) = 0.000000e+00
i(vd) = -1.44412e-12
i(vg) = 4.212761e-13
i(vs) = 1.022831e-12
i(vb) = 1.604054e-17
Doing analysis at TEMP = 25.000000 and TNOM = 27.000000


No. of Data Rows : 1
abs(v(alim)) = 1.250000e-01
v(drain) = 3.500000e-01
v(gate) = 0.000000e+00
v(source) = 1.250000e-01
v(body) = 0.000000e+00
i(vd) = -1.62724e-12
i(vg) = 4.947162e-13
i(vs) = 1.132507e-12
i(vb) = 1.604114e-17
Doing analysis at TEMP = 25.000000 and TNOM = 27.000000


No. of Data Rows : 1
abs(v(alim)) = 1.250000e-01
v(drain) = 3.750000e-01
v(gate) = 0.000000e+00
v(source) = 1.250000e-01
v(body) = 0.000000e+00
i(vd) = -1.83155e-12
i(vg) = 5.788268e-13
i(vs) = 1.252709e-12
i(vb) = 1.604180e-17
Doing analysis at TEMP = 25.000000 and TNOM = 27.000000


No. of Data Rows : 1
abs(v(alim)) = 1.250000e-01
v(drain) = 4.000000e-01
v(gate) = 0.000000e+00
v(source) = 1.250000e-01
v(body) = 0.000000e+00
i(vd) = -2.05942e-12
i(vg) = 6.748078e-13
i(vs) = 1.384594e-12
i(vb) = 1.604251e-17
Doing analysis at TEMP = 25.000000 and TNOM = 27.000000


No. of Data Rows : 1
abs(v(alim)) = 1.250000e-01
v(drain) = 4.250000e-01
v(gate) = 0.000000e+00
v(source) = 1.250000e-01
v(body) = 0.000000e+00
i(vd) = -2.31339e-12
i(vg) = 7.839752e-13
i(vs) = 1.529395e-12
i(vb) = 1.604329e-17
Doing analysis at TEMP = 25.000000 and TNOM = 27.000000


No. of Data Rows : 1
abs(v(alim)) = 1.250000e-01
v(drain) = 4.500000e-01
v(gate) = 0.000000e+00
v(source) = 1.250000e-01
v(body) = 0.000000e+00
i(vd) = -2.59623e-12
i(vg) = 9.077716e-13
i(vs) = 1.688438e-12
i(vb) = 1.604416e-17
Doing analysis at TEMP = 25.000000 and TNOM = 27.000000


No. of Data Rows : 1
abs(v(alim)) = 1.250000e-01
v(drain) = 4.750000e-01
v(gate) = 0.000000e+00
v(source) = 1.250000e-01
v(body) = 0.000000e+00
i(vd) = -2.91096e-12
i(vg) = 1.047777e-12
i(vs) = 1.863171e-12
i(vb) = 1.604512e-17
Doing analysis at TEMP = 25.000000 and TNOM = 27.000000


No. of Data Rows : 1
abs(v(alim)) = 1.250000e-01
v(drain) = 5.000000e-01
v(gate) = 0.000000e+00
v(source) = 1.250000e-01
v(body) = 0.000000e+00
i(vd) = -3.26091e-12
i(vg) = 1.205722e-12
i(vs) = 2.055171e-12
i(vb) = 1.604618e-17
Doing analysis at TEMP = 25.000000 and TNOM = 27.000000


No. of Data Rows : 1
abs(v(alim)) = 1.250000e-01
v(drain) = 5.250000e-01
v(gate) = 0.000000e+00
v(source) = 1.250000e-01
v(body) = 0.000000e+00
i(vd) = -3.64968e-12
i(vg) = 1.383500e-12
i(vs) = 2.266167e-12
i(vb) = 1.604736e-17
Doing analysis at TEMP = 25.000000 and TNOM = 27.000000


No. of Data Rows : 1
abs(v(alim)) = 1.250000e-01
v(drain) = 5.500000e-01
v(gate) = 0.000000e+00
v(source) = 1.250000e-01
v(body) = 0.000000e+00
i(vd) = -4.08125e-12
i(vg) = 1.583178e-12
i(vs) = 2.498054e-12
i(vb) = 1.604868e-17
Doing analysis at TEMP = 25.000000 and TNOM = 27.000000


No. of Data Rows : 1
abs(v(alim)) = 1.250000e-01
v(drain) = 5.750000e-01
v(gate) = 0.000000e+00
v(source) = 1.250000e-01
v(body) = 0.000000e+00
i(vd) = -4.55995e-12
i(vg) = 1.807020e-12
i(vs) = 2.752912e-12
i(vb) = 1.605015e-17
Doing analysis at TEMP = 25.000000 and TNOM = 27.000000


No. of Data Rows : 1
abs(v(alim)) = 1.250000e-01
v(drain) = 6.000000e-01
v(gate) = 0.000000e+00
v(source) = 1.250000e-01
v(body) = 0.000000e+00
i(vd) = -5.09054e-12
i(vg) = 2.057495e-12
i(vs) = 3.033025e-12
i(vb) = 1.605179e-17
Doing analysis at TEMP = 25.000000 and TNOM = 27.000000


No. of Data Rows : 1
abs(v(alim)) = 1.250000e-01
v(drain) = 6.250000e-01
v(gate) = 0.000000e+00
v(source) = 1.250000e-01
v(body) = 0.000000e+00
i(vd) = -5.67822e-12
i(vg) = 2.337301e-12
i(vs) = 3.340903e-12
i(vb) = 1.605363e-17
Doing analysis at TEMP = 25.000000 and TNOM = 27.000000


No. of Data Rows : 1
abs(v(alim)) = 1.250000e-01
v(drain) = 6.500000e-01
v(gate) = 0.000000e+00
v(source) = 1.250000e-01
v(body) = 0.000000e+00
i(vd) = -6.32870e-12
i(vg) = 2.649378e-12
i(vs) = 3.679304e-12
i(vb) = 1.605569e-17
Doing analysis at TEMP = 25.000000 and TNOM = 27.000000


No. of Data Rows : 1
abs(v(alim)) = 1.250000e-01
v(drain) = 6.750000e-01
v(gate) = 0.000000e+00
v(source) = 1.250000e-01
v(body) = 0.000000e+00
i(vd) = -7.04822e-12
i(vg) = 2.996937e-12
i(vs) = 4.051265e-12
i(vb) = 1.605799e-17
Doing analysis at TEMP = 25.000000 and TNOM = 27.000000


No. of Data Rows : 1
abs(v(alim)) = 1.250000e-01
v(drain) = 7.000000e-01
v(gate) = 0.000000e+00
v(source) = 1.250000e-01
v(body) = 0.000000e+00
i(vd) = -7.84362e-12
i(vg) = 3.383475e-12
i(vs) = 4.460126e-12
i(vb) = 1.606057e-17
Doing analysis at TEMP = 25.000000 and TNOM = 27.000000


No. of Data Rows : 1
abs(v(alim)) = 1.250000e-01
v(drain) = 7.250000e-01
v(gate) = 0.000000e+00
v(source) = 1.250000e-01
v(body) = 0.000000e+00
i(vd) = -8.72239e-12
i(vg) = 3.812803e-12
i(vs) = 4.909569e-12
i(vb) = 1.606346e-17
Doing analysis at TEMP = 25.000000 and TNOM = 27.000000


No. of Data Rows : 1
abs(v(alim)) = 1.250000e-01
v(drain) = 7.500000e-01
v(gate) = 0.000000e+00
v(source) = 1.250000e-01
v(body) = 0.000000e+00
i(vd) = -9.69274e-12
i(vg) = 4.289073e-12
i(vs) = 5.403651e-12
i(vb) = 1.606671e-17
Doing analysis at TEMP = 25.000000 and TNOM = 27.000000


No. of Data Rows : 1
abs(v(alim)) = 1.250000e-01
v(drain) = 7.750000e-01
v(gate) = 0.000000e+00
v(source) = 1.250000e-01
v(body) = 0.000000e+00
i(vd) = -1.07637e-11
i(vg) = 4.816803e-12
i(vs) = 5.946849e-12
i(vb) = 1.607035e-17
Doing analysis at TEMP = 25.000000 and TNOM = 27.000000


No. of Data Rows : 1
abs(v(alim)) = 1.250000e-01
v(drain) = 8.000000e-01
v(gate) = 0.000000e+00
v(source) = 1.250000e-01
v(body) = 0.000000e+00
i(vd) = -1.19450e-11
i(vg) = 5.400911e-12
i(vs) = 6.544108e-12
i(vb) = 1.607443e-17
Doing analysis at TEMP = 25.000000 and TNOM = 27.000000


No. of Data Rows : 1
abs(v(alim)) = 1.250000e-01
v(drain) = 8.250000e-01
v(gate) = 0.000000e+00
v(source) = 1.250000e-01
v(body) = 0.000000e+00
i(vd) = -1.32477e-11
i(vg) = 6.046748e-12
i(vs) = 7.200891e-12
i(vb) = 1.607901e-17
Doing analysis at TEMP = 25.000000 and TNOM = 27.000000


No. of Data Rows : 1
abs(v(alim)) = 1.250000e-01
v(drain) = 8.500000e-01
v(gate) = 0.000000e+00
v(source) = 1.250000e-01
v(body) = 0.000000e+00
i(vd) = -1.46834e-11
i(vg) = 6.760129e-12
i(vs) = 7.923244e-12
i(vb) = 1.608416e-17
Doing analysis at TEMP = 25.000000 and TNOM = 27.000000


No. of Data Rows : 1
abs(v(alim)) = 1.250000e-01
v(drain) = 8.750000e-01
v(gate) = 0.000000e+00
v(source) = 1.250000e-01
v(body) = 0.000000e+00
i(vd) = -1.62653e-11
i(vg) = 7.547379e-12
i(vs) = 8.717858e-12
i(vb) = 1.608993e-17
Doing analysis at TEMP = 25.000000 and TNOM = 27.000000


No. of Data Rows : 1
abs(v(alim)) = 1.250000e-01
v(drain) = 9.000000e-01
v(gate) = 0.000000e+00
v(source) = 1.250000e-01
v(body) = 0.000000e+00
i(vd) = -1.80075e-11
i(vg) = 8.415369e-12
i(vs) = 9.592149e-12
i(vb) = 1.609640e-17
Doing analysis at TEMP = 25.000000 and TNOM = 27.000000


No. of Data Rows : 1
abs(v(alim)) = 1.250000e-01
v(drain) = 9.250000e-01
v(gate) = 0.000000e+00
v(source) = 1.250000e-01
v(body) = 0.000000e+00
i(vd) = -1.99259e-11
i(vg) = 9.371561e-12
i(vs) = 1.055434e-11
i(vb) = 1.610367e-17
Doing analysis at TEMP = 25.000000 and TNOM = 27.000000


No. of Data Rows : 1
abs(v(alim)) = 1.250000e-01
v(drain) = 9.500000e-01
v(gate) = 0.000000e+00
v(source) = 1.250000e-01
v(body) = 0.000000e+00
i(vd) = -2.20376e-11
i(vg) = 1.042406e-11
i(vs) = 1.161357e-11
i(vb) = 1.611182e-17
Doing analysis at TEMP = 25.000000 and TNOM = 27.000000


No. of Data Rows : 1
abs(v(alim)) = 1.250000e-01
v(drain) = 9.750000e-01
v(gate) = 0.000000e+00
v(source) = 1.250000e-01
v(body) = 0.000000e+00
i(vd) = -2.43617e-11
i(vg) = 1.158167e-11
i(vs) = 1.277997e-11
i(vb) = 1.612098e-17
Doing analysis at TEMP = 25.000000 and TNOM = 27.000000


No. of Data Rows : 1
abs(v(alim)) = 1.250000e-01
v(drain) = 1.000000e+00
v(gate) = 0.000000e+00
v(source) = 1.250000e-01
v(body) = 0.000000e+00
i(vd) = -2.69188e-11
i(vg) = 1.285393e-11
i(vs) = 1.406482e-11
i(vb) = 1.613883e-17
Doing analysis at TEMP = 25.000000 and TNOM = 27.000000


No. of Data Rows : 1
abs(v(alim)) = 1.250000e-01
v(drain) = 1.025000e+00
v(gate) = 0.000000e+00
v(source) = 1.250000e-01
v(body) = 0.000000e+00
i(vd) = -2.97319e-11
i(vg) = 1.425119e-11
i(vs) = 1.548066e-11
i(vb) = 1.682353e-17
Doing analysis at TEMP = 25.000000 and TNOM = 27.000000


No. of Data Rows : 1
abs(v(alim)) = 1.250000e-01
v(drain) = 1.050000e+00
v(gate) = 0.000000e+00
v(source) = 1.250000e-01
v(body) = 0.000000e+00
i(vd) = -3.28262e-11
i(vg) = 1.578471e-11
i(vs) = 1.704146e-11
i(vb) = 4.122223e-17
[...]


No. of Data Rows : 1
abs(v(alim)) = 1.125000e+00
v(drain) = 6.000000e-01
v(gate) = 1.100000e+00
v(source) = 1.125000e+00
v(body) = 0.000000e+00
i(vd) = 2.863981e-06
i(vg) = -4.92495e-13
i(vs) = -2.86398e-06
i(vb) = 1.484528e-14
Doing analysis at TEMP = 25.000000 and TNOM = 27.000000


No. of Data Rows : 1
abs(v(alim)) = 1.125000e+00
v(drain) = 6.250000e-01
v(gate) = 1.100000e+00
v(source) = 1.125000e+00
v(body) = 0.000000e+00
i(vd) = 1.557392e-06
i(vg) = -3.42837e-13
i(vs) = -1.55739e-06
i(vb) = 9.347522e-15
Doing analysis at TEMP = 25.000000 and TNOM = 27.000000


No. of Data Rows : 1
abs(v(alim)) = 1.125000e+00
v(drain) = 6.500000e-01
v(gate) = 1.100000e+00
v(source) = 1.125000e+00
v(body) = 0.000000e+00
i(vd) = 7.952500e-07
i(vg) = -2.41140e-13
i(vs) = -7.95250e-07
i(vb) = 6.247533e-15
Doing analysis at TEMP = 25.000000 and TNOM = 27.000000


No. of Data Rows : 1
abs(v(alim)) = 1.125000e+00
v(drain) = 6.750000e-01
v(gate) = 1.100000e+00
v(source) = 1.125000e+00
v(body) = 0.000000e+00
i(vd) = 3.845529e-07
i(vg) = -1.75415e-13
i(vs) = -3.84553e-07
i(vb) = 4.631138e-15
Doing analysis at TEMP = 25.000000 and TNOM = 27.000000


No. of Data Rows : 1
abs(v(alim)) = 1.125000e+00
v(drain) = 7.000000e-01
v(gate) = 1.100000e+00
v(source) = 1.125000e+00
v(body) = 0.000000e+00
i(vd) = 1.770626e-07
i(vg) = -1.31894e-13
i(vs) = -1.77062e-07
i(vb) = 3.843450e-15
Doing analysis at TEMP = 25.000000 and TNOM = 27.000000


No. of Data Rows : 1
abs(v(alim)) = 1.125000e+00
v(drain) = 7.250000e-01
v(gate) = 1.100000e+00
v(source) = 1.125000e+00
v(body) = 0.000000e+00
i(vd) = 7.797123e-08
i(vg) = -1.01252e-13
i(vs) = -7.79711e-08
i(vb) = 3.482356e-15
Doing analysis at TEMP = 25.000000 and TNOM = 27.000000


No. of Data Rows : 1
abs(v(alim)) = 1.125000e+00
v(drain) = 7.500000e-01
v(gate) = 1.100000e+00
v(source) = 1.125000e+00
v(body) = 0.000000e+00
i(vd) = 3.302569e-08
i(vg) = -7.68274e-14
i(vs) = -3.30256e-08
i(vb) = 3.325851e-15
Doing analysis at TEMP = 25.000000 and TNOM = 27.000000


No. of Data Rows : 1
abs(v(alim)) = 1.125000e+00
v(drain) = 7.750000e-01
v(gate) = 1.100000e+00
v(source) = 1.125000e+00
v(body) = 0.000000e+00
i(vd) = 1.355085e-08
i(vg) = -5.77316e-14
i(vs) = -1.35508e-08
i(vb) = 3.261272e-15
Doing analysis at TEMP = 25.000000 and TNOM = 27.000000


No. of Data Rows : 1
abs(v(alim)) = 1.125000e+00
v(drain) = 8.000000e-01
v(gate) = 1.100000e+00
v(source) = 1.125000e+00
v(body) = 0.000000e+00
i(vd) = 5.425568e-09
i(vg) = -4.26326e-14
i(vs) = -5.42553e-09
i(vb) = 3.235663e-15
Doing analysis at TEMP = 25.000000 and TNOM = 27.000000


No. of Data Rows : 1
abs(v(alim)) = 1.125000e+00
v(drain) = 8.250000e-01
v(gate) = 1.100000e+00
v(source) = 1.125000e+00
v(body) = 0.000000e+00
i(vd) = 2.133290e-09
i(vg) = -2.93099e-14
i(vs) = -2.13326e-09
i(vb) = 3.225796e-15
Doing analysis at TEMP = 25.000000 and TNOM = 27.000000


No. of Data Rows : 1
abs(v(alim)) = 1.125000e+00
v(drain) = 8.500000e-01
v(gate) = 1.100000e+00
v(source) = 1.125000e+00
v(body) = 0.000000e+00
i(vd) = 8.278148e-10
i(vg) = -1.90958e-14
i(vs) = -8.27799e-10
i(vb) = 3.222053e-15
Doing analysis at TEMP = 25.000000 and TNOM = 27.000000


No. of Data Rows : 1
abs(v(alim)) = 1.125000e+00
v(drain) = 8.750000e-01
v(gate) = 1.100000e+00
v(source) = 1.125000e+00
v(body) = 0.000000e+00
i(vd) = 3.181629e-10
i(vg) = -1.06581e-14
i(vs) = -3.18155e-10
i(vb) = 3.220625e-15
Doing analysis at TEMP = 25.000000 and TNOM = 27.000000


No. of Data Rows : 1
abs(v(alim)) = 1.125000e+00
v(drain) = 9.000000e-01
v(gate) = 1.100000e+00
v(source) = 1.125000e+00
v(body) = 0.000000e+00
i(vd) = 1.214104e-10
i(vg) = -4.44089e-15
i(vs) = -1.21409e-10
i(vb) = 3.220054e-15
Doing analysis at TEMP = 25.000000 and TNOM = 27.000000


No. of Data Rows : 1
abs(v(alim)) = 1.125000e+00
v(drain) = 9.250000e-01
v(gate) = 1.100000e+00
v(source) = 1.125000e+00
v(body) = 0.000000e+00
i(vd) = 4.607054e-11
i(vg) = -4.44089e-16
i(vs) = -4.60736e-11
i(vb) = 3.219796e-15
Doing analysis at TEMP = 25.000000 and TNOM = 27.000000


No. of Data Rows : 1
abs(v(alim)) = 1.125000e+00
v(drain) = 9.500000e-01
v(gate) = 1.100000e+00
v(source) = 1.125000e+00
v(body) = 0.000000e+00
i(vd) = 1.740060e-11
i(vg) = 8.881784e-16
i(vs) = -1.74043e-11
i(vb) = 3.219652e-15
Doing analysis at TEMP = 25.000000 and TNOM = 27.000000


No. of Data Rows : 1
abs(v(alim)) = 1.125000e+00
v(drain) = 9.750000e-01
v(gate) = 1.100000e+00
v(source) = 1.125000e+00
v(body) = 0.000000e+00
i(vd) = 6.545772e-12
i(vg) = -1.77636e-15
i(vs) = -6.54738e-12
i(vb) = 3.219550e-15
Doing analysis at TEMP = 25.000000 and TNOM = 27.000000


No. of Data Rows : 1
abs(v(alim)) = 1.125000e+00
v(drain) = 1.000000e+00
v(gate) = 1.100000e+00
v(source) = 1.125000e+00
v(body) = 0.000000e+00
i(vd) = 2.452822e-12
i(vg) = -3.10862e-15
i(vs) = -2.45287e-12
i(vb) = 3.219464e-15
Doing analysis at TEMP = 25.000000 and TNOM = 27.000000


No. of Data Rows : 1
abs(v(alim)) = 1.125000e+00
v(drain) = 1.025000e+00
v(gate) = 1.100000e+00
v(source) = 1.125000e+00
v(body) = 0.000000e+00
i(vd) = 9.148961e-13
i(vg) = -3.55271e-15
i(vs) = -9.14326e-13
i(vb) = 3.219384e-15
Doing analysis at TEMP = 25.000000 and TNOM = 27.000000


No. of Data Rows : 1
abs(v(alim)) = 1.125000e+00
v(drain) = 1.050000e+00
v(gate) = 1.100000e+00
v(source) = 1.125000e+00
v(body) = 0.000000e+00
i(vd) = 3.377772e-13
i(vg) = -3.10862e-15
i(vs) = -3.37755e-13
i(vb) = 3.219307e-15
Doing analysis at TEMP = 25.000000 and TNOM = 27.000000


No. of Data Rows : 1
abs(v(alim)) = 1.125000e+00
v(drain) = 1.075000e+00
v(gate) = 1.100000e+00
v(source) = 1.125000e+00
v(body) = 0.000000e+00
i(vd) = 1.191169e-13
i(vg) = -1.33227e-15
i(vs) = -1.21028e-13
i(vb) = 3.219233e-15
Doing analysis at TEMP = 25.000000 and TNOM = 27.000000


No. of Data Rows : 1
abs(v(alim)) = 1.125000e+00
v(drain) = 1.100000e+00
v(gate) = 1.100000e+00
v(source) = 1.125000e+00
v(body) = 0.000000e+00
i(vd) = 3.202325e-14
i(vg) = 1.776357e-15
i(vs) = -3.74922e-14
i(vb) = 3.219161e-15
Doing analysis at TEMP = 25.000000 and TNOM = 27.000000


No. of Data Rows : 1
abs(v(alim)) = 1.125000e+00
v(drain) = 1.125000e+00
v(gate) = 1.100000e+00
v(source) = 1.125000e+00
v(body) = 0.000000e+00
i(vd) = -5.46089e-15
i(vg) = 7.993606e-15
i(vs) = -5.46089e-15
i(vb) = 3.219090e-15
Doing analysis at TEMP = 25.000000 and TNOM = 27.000000


No. of Data Rows : 1
abs(v(alim)) = 1.125000e+00
v(drain) = 1.150000e+00
v(gate) = 1.100000e+00
v(source) = 1.125000e+00
v(body) = 0.000000e+00
i(vd) = -2.63435e-14
i(vg) = 1.598721e-14
i(vs) = 7.775541e-15
i(vb) = 3.219091e-15
Doing analysis at TEMP = 25.000000 and TNOM = 27.000000


No. of Data Rows : 1
abs(v(alim)) = 1.150000e+00
v(drain) = 0.000000e+00
v(gate) = 1.100000e+00
v(source) = 1.150000e+00
v(body) = 0.000000e+00
i(vd) = 1.352200e-04
i(vg) = -2.60495e-10
i(vs) = -1.35220e-04
i(vb) = 2.273219e-10
Doing analysis at TEMP = 25.000000 and TNOM = 27.000000


No. of Data Rows : 1
abs(v(alim)) = 1.150000e+00
v(drain) = 2.500000e-02
v(gate) = 1.100000e+00
v(source) = 1.150000e+00
v(body) = 0.000000e+00
i(vd) = 1.289442e-04
i(vg) = -1.86225e-10
i(vs) = -1.28944e-04
i(vb) = 1.567268e-10
Doing analysis at TEMP = 25.000000 and TNOM = 27.000000


No. of Data Rows : 1
abs(v(alim)) = 1.150000e+00
v(drain) = 5.000000e-02
v(gate) = 1.100000e+00
v(source) = 1.150000e+00
v(body) = 0.000000e+00
i(vd) = 1.226873e-04
i(vg) = -1.32092e-10
i(vs) = -1.22687e-04
i(vb) = 1.059177e-10
Doing analysis at TEMP = 25.000000 and TNOM = 27.000000


No. of Data Rows : 1
abs(v(alim)) = 1.150000e+00
v(drain) = 7.500000e-02
v(gate) = 1.100000e+00
v(source) = 1.150000e+00
v(body) = 0.000000e+00
i(vd) = 1.164498e-04
i(vg) = -9.34581e-11
i(vs) = -1.16450e-04
i(vb) = 7.028666e-11
Doing analysis at TEMP = 25.000000 and TNOM = 27.000000


No. of Data Rows : 1
abs(v(alim)) = 1.150000e+00
v(drain) = 1.000000e-01
v(gate) = 1.100000e+00
v(source) = 1.150000e+00
v(body) = 0.000000e+00
i(vd) = 1.102323e-04
i(vg) = -6.63802e-11
i(vs) = -1.10232e-04
i(vb) = 4.591652e-11
Doing analysis at TEMP = 25.000000 and TNOM = 27.000000


No. of Data Rows : 1
abs(v(alim)) = 1.150000e+00
v(drain) = 1.250000e-01
v(gate) = 1.100000e+00
v(source) = 1.150000e+00
v(body) = 0.000000e+00
i(vd) = 1.040355e-04
i(vg) = -4.76468e-11
i(vs) = -1.04035e-04
i(vb) = 2.962204e-11
Doing analysis at TEMP = 25.000000 and TNOM = 27.000000


No. of Data Rows : 1
abs(v(alim)) = 1.150000e+00
v(drain) = 1.500000e-01
v(gate) = 1.100000e+00
v(source) = 1.150000e+00
v(body) = 0.000000e+00
i(vd) = 9.785998e-05
i(vg) = -3.47682e-11
i(vs) = -9.78600e-05
i(vb) = 1.893667e-11
Doing analysis at TEMP = 25.000000 and TNOM = 27.000000


No. of Data Rows : 1
abs(v(alim)) = 1.150000e+00
v(drain) = 1.750000e-01
v(gate) = 1.100000e+00
v(source) = 1.150000e+00
v(body) = 0.000000e+00
i(vd) = 9.170674e-05
i(vg) = -2.59015e-11
i(vs) = -9.17067e-05
i(vb) = 1.203907e-11
Doing analysis at TEMP = 25.000000 and TNOM = 27.000000


No. of Data Rows : 1
abs(v(alim)) = 1.150000e+00
v(drain) = 2.000000e-01
v(gate) = 1.100000e+00
v(source) = 1.150000e+00
v(body) = 0.000000e+00
i(vd) = 8.557685e-05
i(vg) = -1.97375e-11
i(vs) = -8.55768e-05
i(vb) = 7.639912e-12
Doing analysis at TEMP = 25.000000 and TNOM = 27.000000


No. of Data Rows : 1
abs(v(alim)) = 1.150000e+00
v(drain) = 2.250000e-01
v(gate) = 1.100000e+00
v(source) = 1.150000e+00
v(body) = 0.000000e+00
i(vd) = 7.947166e-05
i(vg) = -1.53775e-11
i(vs) = -7.94717e-05
i(vb) = 4.858165e-12
Doing analysis at TEMP = 25.000000 and TNOM = 27.000000


No. of Data Rows : 1
abs(v(alim)) = 1.150000e+00
v(drain) = 2.500000e-01
v(gate) = 1.100000e+00
v(source) = 1.150000e+00
v(body) = 0.000000e+00
i(vd) = 7.339298e-05
i(vg) = -1.22182e-11
i(vs) = -7.33930e-05
i(vb) = 3.108447e-12
Doing analysis at TEMP = 25.000000 and TNOM = 27.000000


No. of Data Rows : 1
abs(v(alim)) = 1.150000e+00
v(drain) = 2.750000e-01
v(gate) = 1.100000e+00
v(source) = 1.150000e+00
v(body) = 0.000000e+00
i(vd) = 6.734322e-05
i(vg) = -9.86500e-12
i(vs) = -6.73432e-05
i(vb) = 2.010147e-12
Doing analysis at TEMP = 25.000000 and TNOM = 27.000000


No. of Data Rows : 1
abs(v(alim)) = 1.150000e+00
v(drain) = 3.000000e-01
v(gate) = 1.100000e+00
v(source) = 1.150000e+00
v(body) = 0.000000e+00
i(vd) = 6.132585e-05
i(vg) = -8.05978e-12
i(vs) = -6.13258e-05
i(vb) = 1.319796e-12
Doing analysis at TEMP = 25.000000 and TNOM = 27.000000


No. of Data Rows : 1
abs(v(alim)) = 1.150000e+00
v(drain) = 3.250000e-01
v(gate) = 1.100000e+00
v(source) = 1.150000e+00
v(body) = 0.000000e+00
i(vd) = 5.534604e-05
i(vg) = -6.63514e-12
i(vs) = -5.53460e-05
i(vb) = 8.835167e-13
Doing analysis at TEMP = 25.000000 and TNOM = 27.000000


No. of Data Rows : 1
abs(v(alim)) = 1.150000e+00
v(drain) = 3.500000e-01
v(gate) = 1.100000e+00
v(source) = 1.150000e+00
v(body) = 0.000000e+00
i(vd) = 4.941178e-05
i(vg) = -5.48273e-12
i(vs) = -4.94118e-05
i(vb) = 6.049159e-13
Doing analysis at TEMP = 25.000000 and TNOM = 27.000000


No. of Data Rows : 1
abs(v(alim)) = 1.150000e+00
v(drain) = 3.750000e-01
v(gate) = 1.100000e+00
v(source) = 1.150000e+00
v(body) = 0.000000e+00
i(vd) = 4.353570e-05
i(vg) = -4.53237e-12
i(vs) = -4.35357e-05
i(vb) = 4.240123e-13
Doing analysis at TEMP = 25.000000 and TNOM = 27.000000


No. of Data Rows : 1
abs(v(alim)) = 1.150000e+00
v(drain) = 4.000000e-01
v(gate) = 1.100000e+00
v(source) = 1.150000e+00
v(body) = 0.000000e+00
i(vd) = 3.773813e-05
i(vg) = -3.73612e-12
i(vs) = -3.77381e-05
i(vb) = 3.036792e-13
Doing analysis at TEMP = 25.000000 and TNOM = 27.000000


No. of Data Rows : 1
abs(v(alim)) = 1.150000e+00
v(drain) = 4.250000e-01
v(gate) = 1.100000e+00
v(source) = 1.150000e+00
v(body) = 0.000000e+00
i(vd) = 3.205163e-05
i(vg) = -3.06377e-12
i(vs) = -3.20516e-05
i(vb) = 2.210553e-13
Doing analysis at TEMP = 25.000000 and TNOM = 27.000000


No. of Data Rows : 1
abs(v(alim)) = 1.150000e+00
v(drain) = 4.500000e-01
v(gate) = 1.100000e+00
v(source) = 1.150000e+00
v(body) = 0.000000e+00
i(vd) = 2.652770e-05
i(vg) = -2.49134e-12
i(vs) = -2.65277e-05
i(vb) = 1.621629e-13
Doing analysis at TEMP = 25.000000 and TNOM = 27.000000


No. of Data Rows : 1
abs(v(alim)) = 1.150000e+00
v(drain) = 4.750000e-01
v(gate) = 1.100000e+00
v(source) = 1.150000e+00
v(body) = 0.000000e+00
i(vd) = 2.124499e-05
i(vg) = -2.00329e-12
i(vs) = -2.12450e-05
i(vb) = 1.185680e-13
Doing analysis at TEMP = 25.000000 and TNOM = 27.000000


No. of Data Rows : 1
abs(v(alim)) = 1.150000e+00
v(drain) = 5.000000e-01
v(gate) = 1.100000e+00
v(source) = 1.150000e+00
v(body) = 0.000000e+00
i(vd) = 1.631683e-05
i(vg) = -1.58717e-12
i(vs) = -1.63168e-05
i(vb) = 8.531610e-14
Doing analysis at TEMP = 25.000000 and TNOM = 27.000000


No. of Data Rows : 1
abs(v(alim)) = 1.150000e+00
v(drain) = 5.250000e-01
v(gate) = 1.100000e+00
v(source) = 1.150000e+00
v(body) = 0.000000e+00
i(vd) = 1.189122e-05
i(vg) = -1.23324e-12
i(vs) = -1.18912e-05
i(vb) = 5.963744e-14
Doing analysis at TEMP = 25.000000 and TNOM = 27.000000


No. of Data Rows : 1
abs(v(alim)) = 1.150000e+00
v(drain) = 5.500000e-01
v(gate) = 1.100000e+00
v(source) = 1.150000e+00
v(body) = 0.000000e+00
i(vd) = 8.131755e-06
i(vg) = -9.34364e-13
i(vs) = -8.13175e-06
i(vb) = 4.007373e-14
Doing analysis at TEMP = 25.000000 and TNOM = 27.000000


No. of Data Rows : 1
abs(v(alim)) = 1.150000e+00
v(drain) = 5.750000e-01
v(gate) = 1.100000e+00
v(source) = 1.150000e+00
v(body) = 0.000000e+00
i(vd) = 5.170546e-06
i(vg) = -6.85674e-13
i(vs) = -5.17055e-06
i(vb) = 2.580394e-14
Doing analysis at TEMP = 25.000000 and TNOM = 27.000000


No. of Data Rows : 1
abs(v(alim)) = 1.150000e+00
v(drain) = 6.000000e-01
v(gate) = 1.100000e+00
v(source) = 1.150000e+00
v(body) = 0.000000e+00
i(vd) = 3.045632e-06
i(vg) = -4.85390e-13
i(vs) = -3.04563e-06
i(vb) = 1.610706e-14
Doing analysis at TEMP = 25.000000 and TNOM = 27.000000


No. of Data Rows : 1
abs(v(alim)) = 1.150000e+00
v(drain) = 6.250000e-01
v(gate) = 1.100000e+00
v(source) = 1.150000e+00
v(body) = 0.000000e+00
i(vd) = 1.668101e-06
i(vg) = -3.35287e-13
i(vs) = -1.66810e-06
i(vb) = 1.006930e-14
Doing analysis at TEMP = 25.000000 and TNOM = 27.000000


No. of Data Rows : 1
abs(v(alim)) = 1.150000e+00
v(drain) = 6.500000e-01
v(gate) = 1.100000e+00
v(source) = 1.150000e+00
v(body) = 0.000000e+00
i(vd) = 8.570457e-07
i(vg) = -2.33147e-13
i(vs) = -8.57046e-07
i(vb) = 6.630142e-15
Doing analysis at TEMP = 25.000000 and TNOM = 27.000000


No. of Data Rows : 1
abs(v(alim)) = 1.150000e+00
v(drain) = 6.750000e-01
v(gate) = 1.100000e+00
v(source) = 1.150000e+00
v(body) = 0.000000e+00
i(vd) = 4.166668e-07
i(vg) = -1.67422e-13
i(vs) = -4.16667e-07
i(vb) = 4.820947e-15
Doing analysis at TEMP = 25.000000 and TNOM = 27.000000


No. of Data Rows : 1
abs(v(alim)) = 1.150000e+00
v(drain) = 7.000000e-01
v(gate) = 1.100000e+00
v(source) = 1.150000e+00
v(body) = 0.000000e+00
i(vd) = 1.927794e-07
i(vg) = -1.24345e-13
i(vs) = -1.92779e-07
i(vb) = 3.932217e-15
Doing analysis at TEMP = 25.000000 and TNOM = 27.000000


No. of Data Rows : 1
abs(v(alim)) = 1.150000e+00
v(drain) = 7.250000e-01
v(gate) = 1.100000e+00
v(source) = 1.150000e+00
v(body) = 0.000000e+00
i(vd) = 8.525805e-08
i(vg) = -9.32587e-14
i(vs) = -8.52580e-08
i(vb) = 3.521679e-15
Doing analysis at TEMP = 25.000000 and TNOM = 27.000000


No. of Data Rows : 1
abs(v(alim)) = 1.150000e+00
v(drain) = 7.500000e-01
v(gate) = 1.100000e+00
v(source) = 1.150000e+00
v(body) = 0.000000e+00
i(vd) = 3.624307e-08
i(vg) = -6.97220e-14
i(vs) = -3.62430e-08
i(vb) = 3.342447e-15
Doing analysis at TEMP = 25.000000 and TNOM = 27.000000


No. of Data Rows : 1
abs(v(alim)) = 1.150000e+00
v(drain) = 7.750000e-01
v(gate) = 1.100000e+00
v(source) = 1.150000e+00
v(body) = 0.000000e+00
i(vd) = 1.491373e-08
i(vg) = -4.97380e-14
i(vs) = -1.49137e-08
i(vb) = 3.267996e-15
Doing analysis at TEMP = 25.000000 and TNOM = 27.000000


No. of Data Rows : 1
abs(v(alim)) = 1.150000e+00
v(drain) = 8.000000e-01
v(gate) = 1.100000e+00
v(source) = 1.150000e+00
v(body) = 0.000000e+00
i(vd) = 5.984278e-09
i(vg) = -3.50830e-14
i(vs) = -5.98425e-09
i(vb) = 3.238302e-15
Doing analysis at TEMP = 25.000000 and TNOM = 27.000000


No. of Data Rows : 1
abs(v(alim)) = 1.150000e+00
v(drain) = 8.250000e-01
v(gate) = 1.100000e+00
v(source) = 1.150000e+00
v(body) = 0.000000e+00
i(vd) = 2.356804e-09
i(vg) = -2.17604e-14
i(vs) = -2.35679e-09
i(vb) = 3.226807e-15
Doing analysis at TEMP = 25.000000 and TNOM = 27.000000


No. of Data Rows : 1
abs(v(alim)) = 1.150000e+00
v(drain) = 8.500000e-01
v(gate) = 1.100000e+00
v(source) = 1.150000e+00
v(body) = 0.000000e+00
i(vd) = 9.156790e-10
i(vg) = -1.11022e-14
i(vs) = -9.15671e-10
i(vb) = 3.222433e-15
Doing analysis at TEMP = 25.000000 and TNOM = 27.000000


No. of Data Rows : 1
abs(v(alim)) = 1.150000e+00
v(drain) = 8.750000e-01
v(gate) = 1.100000e+00
v(source) = 1.150000e+00
v(body) = 0.000000e+00
i(vd) = 3.522808e-10
i(vg) = -3.10862e-15
i(vs) = -3.52281e-10
i(vb) = 3.220766e-15
Doing analysis at TEMP = 25.000000 and TNOM = 27.000000


No. of Data Rows : 1
abs(v(alim)) = 1.150000e+00
v(drain) = 9.000000e-01
v(gate) = 1.100000e+00
v(source) = 1.150000e+00
v(body) = 0.000000e+00
i(vd) = 1.345472e-10
i(vg) = 2.664535e-15
i(vs) = -1.34554e-10
i(vb) = 3.220106e-15
Doing analysis at TEMP = 25.000000 and TNOM = 27.000000


No. of Data Rows : 1
abs(v(alim)) = 1.150000e+00
v(drain) = 9.250000e-01
v(gate) = 1.100000e+00
v(source) = 1.150000e+00
v(body) = 0.000000e+00
i(vd) = 5.110077e-11
i(vg) = 7.549517e-15
i(vs) = -5.11115e-11
i(vb) = 3.219815e-15
Doing analysis at TEMP = 25.000000 and TNOM = 27.000000


No. of Data Rows : 1
abs(v(alim)) = 1.150000e+00
v(drain) = 9.500000e-01
v(gate) = 1.100000e+00
v(source) = 1.150000e+00
v(body) = 0.000000e+00
i(vd) = 1.932084e-11
i(vg) = 8.437695e-15
i(vs) = -1.93322e-11
i(vb) = 3.219659e-15
Doing analysis at TEMP = 25.000000 and TNOM = 27.000000


No. of Data Rows : 1
abs(v(alim)) = 1.150000e+00
v(drain) = 9.750000e-01
v(gate) = 1.100000e+00
v(source) = 1.150000e+00
v(body) = 0.000000e+00
i(vd) = 7.278688e-12
i(vg) = 6.217249e-15
i(vs) = -7.28794e-12
i(vb) = 3.219553e-15
Doing analysis at TEMP = 25.000000 and TNOM = 27.000000


No. of Data Rows : 1
abs(v(alim)) = 1.150000e+00
v(drain) = 1.000000e+00
v(gate) = 1.100000e+00
v(source) = 1.150000e+00
v(body) = 0.000000e+00
i(vd) = 2.733925e-12
i(vg) = 4.884981e-15
i(vs) = -2.74161e-12
i(vb) = 3.219465e-15
Doing analysis at TEMP = 25.000000 and TNOM = 27.000000


No. of Data Rows : 1
abs(v(alim)) = 1.150000e+00
v(drain) = 1.025000e+00
v(gate) = 1.100000e+00
v(source) = 1.150000e+00
v(body) = 0.000000e+00
i(vd) = 1.024580e-12
i(vg) = 3.552714e-15
i(vs) = -1.03166e-12
i(vb) = 3.219384e-15
Doing analysis at TEMP = 25.000000 and TNOM = 27.000000


No. of Data Rows : 1
abs(v(alim)) = 1.150000e+00
v(drain) = 1.050000e+00
v(gate) = 1.100000e+00
v(source) = 1.150000e+00
v(body) = 0.000000e+00
i(vd) = 3.829899e-13
i(vg) = 4.884981e-15
i(vs) = -3.90614e-13
i(vb) = 3.219308e-15
Doing analysis at TEMP = 25.000000 and TNOM = 27.000000


No. of Data Rows : 1
abs(v(alim)) = 1.150000e+00
v(drain) = 1.075000e+00
v(gate) = 1.100000e+00
v(source) = 1.150000e+00
v(body) = 0.000000e+00
i(vd) = 1.413240e-13
i(vg) = 6.217249e-15
i(vs) = -1.50881e-13
i(vb) = 3.219234e-15
Doing analysis at TEMP = 25.000000 and TNOM = 27.000000


No. of Data Rows : 1
abs(v(alim)) = 1.150000e+00
v(drain) = 1.100000e+00
v(gate) = 1.100000e+00
v(source) = 1.150000e+00
v(body) = 0.000000e+00
i(vd) = 4.782638e-14
i(vg) = 9.769963e-15
i(vs) = -6.09415e-14
i(vb) = 3.219161e-15
Doing analysis at TEMP = 25.000000 and TNOM = 27.000000


No. of Data Rows : 1
abs(v(alim)) = 1.150000e+00
v(drain) = 1.125000e+00
v(gate) = 1.100000e+00
v(source) = 1.150000e+00
v(body) = 0.000000e+00
i(vd) = 7.775541e-15
i(vg) = 1.598721e-14
i(vs) = -2.63435e-14
i(vb) = 3.219091e-15
Doing analysis at TEMP = 25.000000 and TNOM = 27.000000


No. of Data Rows : 1
abs(v(alim)) = 1.150000e+00
v(drain) = 1.150000e+00
v(gate) = 1.100000e+00
v(source) = 1.150000e+00
v(body) = 0.000000e+00
i(vd) = -1.31070e-14
i(vg) = 2.309264e-14
i(vs) = -1.31070e-14
i(vb) = 3.219021e-15
ngspice-36 done

